! RI-MP2 6-311G(d) autoaux nofrozencore tightscf engrad 
%pal nprocs 1 end 
*xyz -1 1 
C   0.09637425398324018 -0.07231111935583726 0.056285825603134165
C   1.601019966194606 0.12753406808829704 0.037575873444207535
H   2.1018025768870108 -0.6847570999838415 0.5615999748380814
F   -0.5353520564437777 1.1943549279390664 0.12070874684759554
Cl   0.7968941161456123 -3.165648934239845 -0.4182175070254893
H   -0.26846406896536124 -0.5768046758194606 -0.8331890768360785
H   -0.22654479722352217 -0.6423308389091418 0.9256085580211864
H   1.823758566826155 1.0799514323540833 0.5267760153174963
H   1.9964029525960365 0.14927782992668037 -0.9797359602101336
*
