21
Properties=species:S:1:pos:R:3 energy=-90.96689284669539 pbc="F F F"
N        3.55919000       3.05129000       5.64603000
C        3.72557000       3.11200000       7.00408000
C        4.98757000       3.30972000       7.58818000
C        6.16012000       3.46016000       6.80672000
C        6.02895000       3.40590000       5.39830000
C        4.71276000       3.19996000       4.92516000
H        2.85942000       3.00487000       7.66948000
H        5.06651000       3.34948000       8.68872000
H        7.14026000       3.61447000       7.27908000
H        6.89510000       3.51474000       4.71994000
S        4.12909000       3.06022000       3.25198000
C        5.78789000       3.33644000       2.49768000
H        5.64273000       3.27611000       1.40432000
H        6.14927000       4.33193000       2.81140000
H        6.46817000       2.54932000       2.86859000
C        3.92721000       6.77694000       5.03784000
O        4.82787000       6.39349000       3.88220000
H        3.11430000       7.39716000       4.60617000
H        3.54303000       5.82496000       5.46032000
H        4.57351000       7.33702000       5.74547000
H        4.26528000       5.93245000       3.29994000
21
Properties=species:S:1:pos:R:3 energy=-90.95446903092785 pbc="F F F"
N        3.58911000       3.18509000       5.74177000
C        3.77473000       3.17590000       7.09865000
C        5.05179000       3.28519000       7.67321000
C        6.22052000       3.41681000       6.88271000
C        6.06959000       3.43507000       5.47532000
C        4.73953000       3.31250000       5.01179000
H        2.91264000       3.08008000       7.77098000
H        5.14591000       3.26935000       8.77319000
H        7.21265000       3.50169000       7.34762000
H        6.93170000       3.53490000       4.79048000
S        4.13003000       3.27382000       3.34249000
C        5.79356000       3.47716000       2.57586000
H        5.62621000       3.52673000       1.48514000
H        6.24680000       4.40514000       2.96769000
H        6.40683000       2.60331000       2.85923000
C        3.81556000       6.81936000       4.98174000
O        4.80516000       6.50506000       3.87902000
H        3.12763000       7.58801000       4.57206000
H        3.28858000       5.86854000       5.20657000
H        4.42556000       7.19021000       5.83168000
H        4.27732000       6.16721000       3.18894000
21
Properties=species:S:1:pos:R:3 energy=-90.88939685661464 pbc="F F F"
N        3.62529000       3.30533000       5.76909000
C        3.80296000       3.24809000       7.12669000
C        5.08236000       3.24117000       7.70658000
C        6.25962000       3.35880000       6.92688000
C        6.11657000       3.47055000       5.52219000
C        4.78565000       3.40096000       5.04973000
H        2.93418000       3.19109000       7.79464000
H        5.17074000       3.15543000       8.80386000
H        7.25261000       3.35786000       7.39751000
H        6.98564000       3.56809000       4.84482000
S        4.17922000       3.37603000       3.37471000
C        5.82927000       3.47433000       2.56244000
H        5.61930000       3.72651000       1.50696000
H        6.44030000       4.24660000       3.06289000
H        6.31088000       2.48446000       2.65496000
C        3.73536000       6.84418000       4.93607000
O        4.68753000       6.39735000       3.84705000
H        3.20762000       7.73462000       4.53514000
H        3.04174000       5.99570000       5.11360000
H        4.37508000       7.07598000       5.81285000
H        4.12383000       6.11979000       3.15863000
21
Properties=species:S:1:pos:R:3 energy=-90.70577589505797 pbc="F F F"
N        3.62850000       3.43456000       5.79070000
C        3.80462000       3.32616000       7.14653000
C        5.08485000       3.17484000       7.71187000
C        6.26478000       3.32928000       6.94334000
C        6.12509000       3.59188000       5.55870000
C        4.79309000       3.50401000       5.07342000
H        2.93933000       3.30871000       7.82139000
H        5.17249000       2.97132000       8.79274000
H        7.25871000       3.23201000       7.40157000
H        6.99745000       3.73204000       4.89361000
S        4.21866000       3.40261000       3.39153000
C        5.85505000       3.46517000       2.53874000
H        5.61861000       3.80429000       1.51329000
H        6.51959000       4.16927000       3.07005000
H        6.29653000       2.45279000       2.52964000
C        3.71849000       6.82541000       4.91273000
O        4.63168000       6.29073000       3.83173000
H        3.27168000       7.74749000       4.48627000
H        2.95523000       6.04152000       5.10258000
H        4.37171000       7.02226000       5.78785000
H        4.03600000       5.92337000       3.21467000
21
Properties=species:S:1:pos:R:3 energy=-90.4101758079988 pbc="F F F"
N        3.62102000       3.56868000       5.81551000
C        3.80222000       3.39413000       7.16484000
C        5.08066000       3.13569000       7.70093000
C        6.25903000       3.32153000       6.93731000
C        6.11804000       3.70510000       5.58268000
C        4.78288000       3.58515000       5.08847000
H        2.94419000       3.37594000       7.84927000
H        5.17057000       2.83495000       8.75752000
H        7.25487000       3.14689000       7.36673000
H        6.99239000       3.86337000       4.92739000
S        4.25281000       3.38446000       3.40371000
C        5.87272000       3.45493000       2.52198000
H        5.62330000       3.82462000       1.50994000
H        6.53743000       4.14604000       3.06948000
H        6.31865000       2.44564000       2.46940000
C        3.71742000       6.79481000       4.90624000
O        4.61136000       6.19981000       3.84026000
H        3.32894000       7.72447000       4.44249000
H        2.91056000       6.05934000       5.10986000
H        4.36689000       6.98330000       5.78580000
H        3.99828000       5.79557000       3.26339000
21
Properties=species:S:1:pos:R:3 energy=-90.05224849440329 pbc="F F F"
N        3.62081000       3.69809000       5.83898000
C        3.80164000       3.43710000       7.17772000
C        5.07524000       3.12092000       7.68887000
C        6.25050000       3.31809000       6.92253000
C        6.10833000       3.78858000       5.59914000
C        4.76987000       3.66601000       5.09088000
H        2.94543000       3.38908000       7.86406000
H        5.16709000       2.76232000       8.72650000
H        7.24748000       3.09522000       7.32581000
H        6.98947000       3.93354000       4.95290000
S        4.29035000       3.34398000       3.39582000
C        5.87896000       3.44770000       2.51220000
H        5.62492000       3.83351000       1.50433000
H        6.53518000       4.13820000       3.07424000
H        6.33355000       2.44140000       2.43809000
C        3.71787000       6.76775000       4.91087000
O        4.60731000       6.12820000       3.86347000
H        3.37460000       7.69216000       4.40573000
H        2.88041000       6.07239000       5.13075000
H        4.35608000       6.96389000       5.79675000
H        3.98954000       5.70510000       3.29397000
21
Properties=species:S:1:pos:R:3 energy=-89.61380704909558 pbc="F F F"
N        3.62025000       3.78382000       5.86466000
C        3.80147000       3.45409000       7.18827000
C        5.07257000       3.11641000       7.68172000
C        6.24495000       3.31058000       6.90784000
C        6.10492000       3.83379000       5.61078000
C        4.75638000       3.76914000       5.09127000
H        2.94291000       3.38518000       7.87078000
H        5.16550000       2.73368000       8.70987000
H        7.24286000       3.07062000       7.29908000
H        6.99071000       3.96120000       4.96869000
S        4.31399000       3.32177000       3.35940000
C        5.87874000       3.44523000       2.50756000
H        5.62950000       3.83852000       1.49688000
H        6.53319000       4.13610000       3.07716000
H        6.34082000       2.43927000       2.42338000
C        3.71889000       6.74726000       4.91831000
O        4.60948000       6.04644000       3.89547000
H        3.40749000       7.66309000       4.38111000
H        2.86082000       6.08321000       5.15171000
H        4.34541000       6.95554000       5.80900000
H        3.98393000       5.64816000       3.30113000
21
Properties=species:S:1:pos:R:3 energy=-89.16310657161515 pbc="F F F"
N        3.61788000       3.82644000       5.88383000
C        3.80175000       3.45978000       7.19473000
C        5.07058000       3.11500000       7.67750000
C        6.24171000       3.30573000       6.89297000
C        6.10611000       3.84590000       5.61489000
C        4.74224000       3.88184000       5.07151000
H        2.94023000       3.38328000       7.87254000
H        5.16407000       2.72319000       8.70139000
H        7.24026000       3.06142000       7.28491000
H        6.99208000       3.97042000       4.97686000
S        4.32154000       3.29842000       3.34359000
C        5.88085000       3.44429000       2.50402000
H        5.63792000       3.84018000       1.49302000
H        6.53466000       4.13431000       3.07466000
H        6.34671000       2.44064000       2.41448000
C        3.71695000       6.73809000       4.92709000
O        4.61735000       5.96556000       3.92908000
H        3.42388000       7.64693000       4.37050000
H        2.84998000       6.08981000       5.16505000
H        4.33768000       6.95362000       5.81851000
H        3.98049000       5.61853000       3.30306000
21
Properties=species:S:1:pos:R:3 energy=-88.94912206450726 pbc="F F F"
N        3.62664000       3.87022000       5.89318000
C        3.80235000       3.46902000       7.19483000
C        5.06737000       3.11380000       7.67406000
C        6.23910000       3.30388000       6.87953000
C        6.10211000       3.84732000       5.61630000
C        4.73550000       3.99354000       5.04896000
H        2.93851000       3.38451000       7.87052000
H        5.16101000       2.71248000       8.69341000
H        7.23822000       3.05332000       7.27236000
H        6.99080000       3.97602000       4.98490000
S        4.32953000       3.27639000       3.34041000
C        5.88384000       3.44316000       2.49904000
H        5.64761000       3.84169000       1.48872000
H        6.53516000       4.13279000       3.07169000
H        6.35127000       2.44123000       2.40576000
C        3.71212000       6.73247000       4.93970000
O        4.62375000       5.88735000       3.96420000
H        3.43656000       7.63321000       4.36312000
H        2.83941000       6.09501000       5.17738000
H        4.32982000       6.95378000       5.82976000
H        3.97444000       5.58259000       3.30651000
21
Properties=species:S:1:pos:R:3 energy=-88.83264174501988 pbc="F F F"
N        3.64019000       3.95836000       5.91304000
C        3.80250000       3.49273000       7.19428000
C        5.06199000       3.11171000       7.66671000
C        6.23551000       3.30441000       6.86704000
C        6.10042000       3.86329000       5.62126000
C        4.73515000       4.06647000       5.04133000
H        2.93580000       3.39313000       7.86618000
H        5.15256000       2.68608000       8.67567000
H        7.23441000       3.03645000       7.25336000
H        6.99091000       3.98982000       4.99494000
S        4.33986000       3.24827000       3.34087000
C        5.88752000       3.43998000       2.48772000
H        5.66921000       3.84514000       1.47805000
H        6.53435000       4.12800000       3.06541000
H        6.35893000       2.44178000       2.38842000
C        3.70616000       6.72523000       4.95829000
O        4.63210000       5.83210000       3.99292000
H        3.45336000       7.61349000       4.35492000
H        2.82673000       6.09805000       5.19248000
H        4.31540000       6.95606000       5.85053000
H        3.95257000       5.51455000       3.31134000
21
Properties=species:S:1:pos:R:3 energy=-88.67608865711797 pbc="F F F"
N        3.65053000       4.04404000       5.93737000
C        3.80240000       3.51604000       7.19400000
C        5.05769000       3.11293000       7.66121000
C        6.23334000       3.30619000       6.85880000
C        6.10034000       3.88274000       5.62885000
C        4.73384000       4.12379000       5.04467000
H        2.93347000       3.39795000       7.86201000
H        5.14476000       2.66460000       8.66014000
H        7.23092000       3.01811000       7.23728000
H        6.99084000       4.00747000       5.00448000
S        4.33562000       3.23133000       3.33119000
C        5.89104000       3.43849000       2.47227000
H        5.69801000       3.84906000       1.46215000
H        6.53362000       4.12260000       3.05554000
H        6.36543000       2.44458000       2.37311000
C        3.70750000       6.71330000       4.97783000
O        4.65171000       5.78582000       4.03769000
H        3.47953000       7.58472000       4.34198000
H        2.82040000       6.09533000       5.20341000
H        4.29787000       6.96256000       5.87729000
H        3.90723000       5.44490000       3.29388000
21
Properties=species:S:1:pos:R:3 energy=-88.47923297105083 pbc="F F F"
N        3.65425000       4.08833000       5.95396000
C        3.80159000       3.52739000       7.19560000
C        5.05612000       3.11645000       7.66090000
C        6.23249000       3.30777000       6.85468000
C        6.10255000       3.89614000       5.63677000
C        4.73635000       4.18892000       5.05639000
H        2.93148000       3.39534000       7.86055000
H        5.14221000       2.65748000       8.65483000
H        7.22867000       3.00486000       7.22854000
H        6.99160000       4.01974000       5.01067000
S        4.30297000       3.24190000       3.30486000
C        5.89880000       3.44104000       2.45629000
H        5.72183000       3.85275000       1.44746000
H        6.53518000       4.11970000       3.04708000
H        6.36778000       2.44814000       2.36669000
C        3.71667000       6.69997000       4.98981000
O        4.68435000       5.74911000       4.11486000
H        3.50540000       7.55723000       4.32741000
H        2.82106000       6.09126000       5.20684000
H        4.28463000       6.97161000       5.89684000
H        3.85010000       5.37191000       3.24410000
21
Properties=species:S:1:pos:R:3 energy=-88.36469536341819 pbc="F F F"
N        3.65456000       4.11254000       5.96645000
C        3.80206000       3.53377000       7.19845000
C        5.05630000       3.11986000       7.66304000
C        6.23357000       3.30798000       6.85600000
C        6.10801000       3.90969000       5.64543000
C        4.74176000       4.25448000       5.07979000
H        2.93060000       3.39098000       7.85979000
H        5.14122000       2.65384000       8.65368000
H        7.22793000       2.99241000       7.22480000
H        6.99485000       4.02986000       5.01612000
S        4.25824000       3.28119000       3.25874000
C        5.90448000       3.44633000       2.44173000
H        5.74130000       3.85733000       1.43315000
H        6.53522000       4.11880000       3.04207000
H        6.36368000       2.45054000       2.36468000
C        3.72712000       6.68666000       4.99264000
O        4.70400000       5.71629000       4.18978000
H        3.52730000       7.53406000       4.31233000
H        2.82285000       6.08892000       5.20655000
H        4.27538000       6.97834000       5.90603000
H        3.81554000       5.28329000       3.20365000
21
Properties=species:S:1:pos:R:3 energy=-88.35654724829529 pbc="F F F"
N        3.65685000       4.12048000       5.97729000
C        3.80404000       3.53548000       7.20475000
C        5.05816000       3.12265000       7.66789000
C        6.23485000       3.30944000       6.86138000
C        6.11246000       3.92507000       5.66078000
C        4.75449000       4.31106000       5.12163000
H        2.92997000       3.38449000       7.86043000
H        5.14212000       2.65119000       8.65588000
H        7.22755000       2.98210000       7.22286000
H        6.99607000       4.04027000       5.02542000
S        4.20570000       3.33645000       3.18855000
C        5.90181000       3.45447000       2.42956000
H        5.75806000       3.86393000       1.41926000
H        6.52951000       4.11901000       3.04042000
H        6.35167000       2.45422000       2.36559000
C        3.73930000       6.67343000       4.98865000
O        4.71746000       5.69581000       4.24855000
H        3.54617000       7.51474000       4.29740000
H        2.82736000       6.08573000       5.20254000
H        4.26921000       6.98287000       5.90829000
H        3.80310000       5.18412000       3.16754000
21
Properties=species:S:1:pos:R:3 energy=-88.51185145000485 pbc="F F F"
N        3.66124000       4.13055000       5.98731000
C        3.80535000       3.53682000       7.21122000
C        5.05914000       3.12483000       7.67190000
C        6.23638000       3.30850000       6.86853000
C        6.11862000       3.93621000       5.67196000
C        4.76887000       4.36525000       5.16705000
H        2.92913000       3.37925000       7.86111000
H        5.14201000       2.64858000       8.65776000
H        7.22710000       2.97152000       7.22351000
H        6.99923000       4.04699000       5.03094000
S        4.15111000       3.40098000       3.12143000
C        5.89660000       3.46467000       2.42143000
H        5.77054000       3.87083000       1.40913000
H        6.52379000       4.12116000       3.04037000
H        6.33730000       2.45930000       2.36875000
C        3.74986000       6.66072000       4.98540000
O        4.73092000       5.69398000       4.29593000
H        3.55907000       7.50123000       4.28910000
H        2.83209000       6.07927000       5.19930000
H        4.26356000       6.98545000       5.91143000
H        3.80396000       5.06074000       3.12106000
21
Properties=species:S:1:pos:R:3 energy=-89.0043809421078 pbc="F F F"
N        3.66508000       4.14222000       5.99481000
C        3.80685000       3.53899000       7.21433000
C        5.06005000       3.12635000       7.67484000
C        6.23778000       3.30619000       6.87505000
C        6.12364000       3.94111000       5.67944000
C        4.78296000       4.41223000       5.21101000
H        2.92920000       3.37555000       7.86047000
H        5.14147000       2.64631000       8.65914000
H        7.22685000       2.96222000       7.22468000
H        7.00189000       4.05179000       5.03398000
S        4.09833000       3.48313000       3.06282000
C        5.89008000       3.47580000       2.41612000
H        5.77973000       3.87746000       1.40127000
H        6.51902000       4.12457000       3.04070000
H        6.32135000       2.46405000       2.37313000
C        3.75497000       6.65463000       4.98703000
O        4.75019000       5.70196000       4.33541000
H        3.56779000       7.49346000       4.28473000
H        2.83516000       6.07314000       5.19788000
H        4.25706000       6.98972000       5.91751000
H        3.81635000       4.90584000       3.07022000
21
Properties=species:S:1:pos:R:3 energy=-89.65346785852304 pbc="F F F"
N        3.68111000       4.15644000       6.00785000
C        3.81188000       3.54011000       7.22051000
C        5.06413000       3.12578000       7.68271000
C        6.23913000       3.29740000       6.88700000
C        6.12398000       3.94758000       5.69053000
C        4.80905000       4.49629000       5.29204000
H        2.93006000       3.36621000       7.85712000
H        5.14105000       2.63888000       8.66428000
H        7.22482000       2.93870000       7.22695000
H        7.00255000       4.06520000       5.04243000
S        4.08032000       3.51730000       2.96655000
C        5.86233000       3.49220000       2.41180000
H        5.77877000       3.89386000       1.38878000
H        6.49415000       4.13333000       3.04912000
H        6.28477000       2.47156000       2.38351000
C        3.75906000       6.65551000       4.98915000
O        4.76380000       5.70417000       4.35789000
H        3.57941000       7.48602000       4.27675000
H        2.84060000       6.06824000       5.19381000
H        4.24454000       6.99918000       5.92568000
H        3.85021000       4.75219000       2.99995000
21
Properties=species:S:1:pos:R:3 energy=-90.37141697193245 pbc="F F F"
N        3.74378000       4.21420000       6.04140000
C        3.82145000       3.53860000       7.21760000
C        5.07541000       3.10853000       7.69361000
C        6.22881000       3.27336000       6.89459000
C        6.08918000       3.97527000       5.69714000
C        4.85351000       4.57329000       5.38371000
H        2.93115000       3.35413000       7.83854000
H        5.14381000       2.60944000       8.67135000
H        7.21512000       2.90962000       7.22155000
H        6.98184000       4.12255000       5.06264000
S        4.10619000       3.46275000       2.85586000
C        5.82419000       3.49184000       2.41256000
H        5.75392000       3.91243000       1.37673000
H        6.44617000       4.13597000       3.06522000
H        6.26081000       2.47449000       2.39206000
C        3.76129000       6.66333000       4.98870000
O        4.77489000       5.69186000       4.38945000
H        3.59427000       7.48003000       4.26113000
H        2.84375000       6.07283000       5.18650000
H        4.22843000       7.01685000       5.93003000
H        3.88772000       4.66392000       2.93391000
21
Properties=species:S:1:pos:R:3 energy=-90.62428607100796 pbc="F F F"
N        3.76661000       4.28760000       6.11508000
C        3.83533000       3.54396000       7.24417000
C        5.08375000       3.07405000       7.70533000
C        6.23098000       3.25482000       6.90506000
C        6.09920000       4.01176000       5.73577000
C        4.87222000       4.63127000       5.43987000
H        2.93285000       3.33663000       7.83766000
H        5.14713000       2.53536000       8.66306000
H        7.21088000       2.86006000       7.21180000
H        6.98278000       4.19140000       5.10053000
S        4.09269000       3.39957000       2.78016000
C        5.81413000       3.47924000       2.38716000
H        5.77199000       3.92036000       1.35649000
H        6.38053000       4.13038000       3.08066000
H        6.26417000       2.46995000       2.37616000
C        3.76096000       6.68414000       4.97565000
O        4.78115000       5.71312000       4.40246000
H        3.60684000       7.48867000       4.23227000
H        2.84289000       6.09043000       5.16448000
H        4.20495000       7.05168000       5.92367000
H        3.88392000       4.58892000       2.87675000
21
Properties=species:S:1:pos:R:3 energy=-90.76633386615515 pbc="F F F"
N        3.78235000       4.34513000       6.17746000
C        3.84833000       3.55222000       7.27312000
C        5.08797000       3.03537000       7.70586000
C        6.23558000       3.24257000       6.91301000
C        6.11090000       4.04793000       5.77576000
C        4.88393000       4.67782000       5.48240000
H        2.94226000       3.32855000       7.85497000
H        5.14605000       2.44669000       8.63503000
H        7.20890000       2.81586000       7.19802000
H        6.99370000       4.24729000       5.14598000
S        4.08716000       3.34485000       2.73434000
C        5.80962000       3.46140000       2.36480000
H        5.78546000       3.92208000       1.34308000
H        6.32639000       4.11559000       3.09411000
H        6.28275000       2.46234000       2.34977000
C        3.75521000       6.71172000       4.95843000
O        4.78940000       5.74059000       4.42012000
H        3.61471000       7.50464000       4.19888000
H        2.83616000       6.11511000       5.13471000
H        4.17494000       7.09624000       5.91131000
H        3.86425000       4.52831000       2.84427000
21
Properties=species:S:1:pos:R:3 energy=-90.84603708912444 pbc="F F F"
N        3.80158000       4.39631000       6.23300000
C        3.86051000       3.56140000       7.29800000
C        5.08985000       2.99736000       7.69927000
C        6.23953000       3.23189000       6.91767000
C        6.11874000       4.08152000       5.81229000
C        4.89602000       4.71880000       5.52750000
H        2.95441000       3.32989000       7.87678000
H        5.14074000       2.36008000       8.59698000
H        7.20765000       2.77982000       7.18108000
H        7.00288000       4.29611000       5.18926000
S        4.08437000       3.29783000       2.69962000
C        5.80705000       3.44412000       2.34690000
H        5.79314000       3.92647000       1.33576000
H        6.28696000       4.09391000       3.10573000
H        6.30144000       2.45515000       2.31937000
C        3.74764000       6.73602000       4.94066000
O        4.79797000       5.76007000       4.44471000
H        3.62347000       7.51476000       4.16281000
H        2.82661000       6.13882000       5.10327000
H        4.14073000       7.14128000       5.89629000
H        3.84542000       4.47575000       2.82913000
21
Properties=species:S:1:pos:R:3 energy=-90.89424062702032 pbc="F F F"
N        3.81880000       4.44312000       6.28320000
C        3.87155000       3.57237000       7.32023000
C        5.08948000       2.96340000       7.68805000
C        6.24229000       3.22098000       6.91867000
C        6.12661000       4.10965000       5.84407000
C        4.90817000       4.75759000       5.56906000
H        2.96674000       3.33799000       7.89983000
H        5.13194000       2.28241000       8.55404000
H        7.20529000       2.74659000       7.16132000
H        7.01202000       4.33616000       5.22715000
S        4.08465000       3.25710000       2.67751000
C        5.80606000       3.42765000       2.33200000
H        5.79561000       3.93888000       1.33575000
H        6.26222000       4.06247000       3.11858000
H        6.31573000       2.44707000       2.28041000
C        3.73800000       6.75605000       4.92226000
O        4.80936000       5.78192000       4.47014000
H        3.62896000       7.51966000       4.12635000
H        2.81737000       6.15447000       5.06949000
H        4.10087000       7.18384000       5.87998000
H        3.83560000       4.42908000       2.83992000
21
Properties=species:S:1:pos:R:3 energy=-90.91946118984892 pbc="F F F"
N        3.83699000       4.49110000       6.32323000
C        3.88011000       3.58945000       7.33474000
C        5.08461000       2.93804000       7.67209000
C        6.24173000       3.20887000       6.91402000
C        6.13609000       4.13272000       5.86895000
C        4.92511000       4.79944000       5.60416000
H        2.97580000       3.35621000       7.91563000
H        5.11593000       2.22075000       8.50909000
H        7.19779000       2.71135000       7.13766000
H        7.02427000       4.36533000       5.25846000
S        4.09104000       3.21020000       2.67905000
C        5.80624000       3.41130000       2.32126000
H        5.78658000       3.95957000       1.34601000
H        6.25085000       4.02209000       3.13409000
H        6.32941000       2.44038000       2.23055000
C        3.72879000       6.76953000       4.90908000
O        4.83719000       5.81890000       4.50029000
H        3.62777000       7.52131000       4.09987000
H        2.81733000       6.14897000       5.03321000
H        4.05007000       7.21893000       5.87178000
H        3.82488000       4.37502000       2.86189000
21
Properties=species:S:1:pos:R:3 energy=-90.93626911652078 pbc="F F F"
N        3.85341000       4.53196000       6.34984000
C        3.88487000       3.60767000       7.34137000
C        5.07652000       2.92183000       7.65519000
C        6.23755000       3.19476000       6.90407000
C        6.14470000       4.14560000       5.88207000
C        4.94234000       4.83201000       5.62912000
H        2.97978000       3.37947000       7.92300000
H        5.09618000       2.18001000       8.47104000
H        7.18558000       2.67575000       7.11273000
H        7.03573000       4.37888000       5.27597000
S        4.10660000       3.16262000       2.70862000
C        5.80967000       3.39812000       2.31688000
H        5.76622000       3.98475000       1.36594000
H        6.25686000       3.98167000       3.14907000
H        6.34395000       2.43887000       2.17724000
C        3.71750000       6.78035000       4.89376000
O        4.86584000       5.85929000       4.53128000
H        3.62553000       7.52465000       4.07649000
H        2.81968000       6.13545000       4.98844000
H        3.99058000       7.24436000       5.86422000
H        3.82424000       4.31944000       2.91597000
21
Properties=species:S:1:pos:R:3 energy=-90.9467285383816 pbc="F F F"
N        3.86330000       4.56589000       6.36498000
C        3.88496000       3.62730000       7.34328000
C        5.06627000       2.91680000       7.64091000
C        6.22970000       3.18611000       6.89233000
C        6.14784000       4.15466000       5.88591000
C        4.95329000       4.85820000       5.64303000
H        2.97902000       3.40492000       7.92580000
H        5.07663000       2.16029000       8.44340000
H        7.17055000       2.64992000       7.08990000
H        7.04088000       4.38493000       5.28154000
S        4.13023000       3.11752000       2.75372000
C        5.81672000       3.39136000       2.31829000
H        5.74031000       4.00869000       1.38978000
H        6.27462000       3.95349000       3.16003000
H        6.36138000       2.44580000       2.13207000
C        3.70638000       6.78746000       4.87693000
O        4.88726000       5.89414000       4.55245000
H        3.62430000       7.53035000       4.05731000
H        2.82142000       6.12154000       4.94118000
H        3.93563000       7.25690000       5.85597000
H        3.83193000       4.26517000       2.98795000
21
Properties=species:S:1:pos:R:3 energy=-90.95347599294854 pbc="F F F"
N        3.86865000       4.59673000       6.37574000
C        3.88359000       3.64951000       7.34577000
C        5.05749000       2.92229000       7.63217000
C        6.22189000       3.18687000       6.88350000
C        6.14766000       4.16634000       5.88691000
C        4.95899000       4.88251000       5.65190000
H        2.97728000       3.43210000       7.92956000
H        5.06151000       2.15708000       8.42646000
H        7.15726000       2.63822000       7.07282000
H        7.04153000       4.39278000       5.28227000
S        4.15448000       3.08349000       2.79943000
C        5.82382000       3.39338000       2.32409000
H        5.71440000       4.03029000       1.41257000
H        6.29364000       3.94331000       3.16762000
H        6.37798000       2.46110000       2.10201000
C        3.69530000       6.79526000       4.86184000
O        4.90040000       5.92470000       4.56673000
H        3.62242000       7.53996000       4.04300000
H        2.82123000       6.11316000       4.89891000
H        3.88868000       7.26463000       5.84853000
H        3.84190000       4.22219000       3.05720000
21
Properties=species:S:1:pos:R:3 energy=-90.9579078043672 pbc="F F F"
N        3.87248000       4.62779000       6.38754000
C        3.88342000       3.67494000       7.35203000
C        5.05219000       2.93612000       7.62969000
C        6.21648000       3.19668000       6.87950000
C        6.14692000       4.18341000       5.88961000
C        4.96238000       4.90861000       5.66126000
H        2.97731000       3.46134000       7.93755000
H        5.05228000       2.16529000       8.41854000
H        7.14789000       2.63908000       7.06207000
H        7.04069000       4.40661000       5.28358000
S        4.17234000       3.06810000       2.83841000
C        5.82749000       3.40592000       2.33327000
H        5.69098000       4.05379000       1.43320000
H        6.30766000       3.95019000       3.17464000
H        6.38894000       2.48418000       2.08663000
C        3.68442000       6.80670000       4.85188000
O        4.90850000       5.95541000       4.58021000
H        3.61939000       7.55455000       4.03527000
H        2.82002000       6.11155000       4.86505000
H        3.84788000       7.27346000       5.84511000
H        3.84966000       4.19927000       3.11551000
21
Properties=species:S:1:pos:R:3 energy=-90.96075248958307 pbc="F F F"
N        3.87600000       4.65764000       6.40156000
C        3.88522000       3.70121000       7.36247000
C        5.05076000       2.95477000       7.63324000
C        6.21424000       3.21256000       6.88088000
C        6.14699000       4.20427000       5.89570000
C        4.96500000       4.93537000       5.67286000
H        2.97982000       3.49049000       7.95012000
H        5.04892000       2.18041000       8.41861000
H        7.14315000       2.64912000       7.05806000
H        7.04014000       4.42557000       5.28802000
S        4.17993000       3.07528000       2.86560000
C        5.82685000       3.42821000       2.34383000
H        5.67371000       4.08399000       1.45197000
H        6.31547000       3.96733000       3.18345000
H        6.39086000       2.51269000       2.08051000
C        3.67536000       6.82173000       4.84941000
O        4.91359000       5.98583000       4.59518000
H        3.61679000       7.57371000       4.03609000
H        2.81890000       6.11675000       4.84218000
H        3.81489000       7.28416000       5.84822000
H        3.85469000       4.20105000       3.16054000
21
Properties=species:S:1:pos:R:3 energy=-90.96283396657027 pbc="F F F"
N        3.87966000       4.68421000       6.41695000
C        3.88837000       3.72568000       7.37574000
C        5.05204000       2.97454000       7.64159000
C        6.21459000       3.23064000       6.88724000
C        6.14833000       4.22560000       5.90520000
C        4.96777000       4.96026000       5.68638000
H        2.98383000       3.51703000       7.96544000
H        5.04951000       2.19822000       8.42500000
H        7.14212000       2.66381000       7.06069000
H        7.04081000       4.44613000       5.29626000
S        4.17886000       3.10167000       2.88008000
C        5.82424000       3.45425000       2.35304000
H        5.66745000       4.12374000       1.47188000
H        6.32172000       3.97898000       3.19646000
H        6.38222000       2.54026000       2.07234000
C        3.66961000       6.83829000       4.85376000
O        4.91751000       6.01344000       4.61126000
H        3.61592000       7.59449000       4.04401000
H        2.81894000       6.12668000       4.83076000
H        3.79182000       7.29595000       5.85698000
H        3.86176000       4.22414000       3.19558000
21
Properties=species:S:1:pos:R:3 energy=-90.96547484049783 pbc="F F F"
N        3.88418000       4.71095000       6.43504000
C        3.89234000       3.75090000       7.39227000
C        5.05444000       2.99601000       7.65440000
C        6.21633000       3.25064000       6.89855000
C        6.15103000       4.24809000       5.91891000
C        4.97168000       4.98558000       5.70309000
H        2.98846000       3.54393000       7.98357000
H        5.05131000       2.21831000       8.43643000
H        7.14275000       2.68121000       7.06933000
H        7.04309000       4.46796000       5.30909000
S        4.17288000       3.14370000       2.88527000
C        5.82208000       3.48150000       2.36052000
H        5.67418000       4.18272000       1.50286000
H        6.33349000       3.96843000       3.21825000
H        6.36089000       2.56676000       2.04683000
C        3.66593000       6.85551000       4.86146000
O        4.92250000       6.04082000       4.62990000
H        3.61659000       7.61557000       4.05506000
H        2.82077000       6.13797000       4.82422000
H        3.77242000       7.30867000       5.86849000
H        3.87820000       4.26193000       3.23567000
21
Properties=species:S:1:pos:R:3 energy=-90.96969416780738 pbc="F F F"
N        3.89046000       4.74427000       6.45908000
C        3.89710000       3.78259000       7.41464000
C        5.05706000       3.02322000       7.67343000
C        6.21877000       3.27579000       6.91666000
C        6.15551000       4.27602000       5.93961000
C        4.97786000       5.01695000       5.72632000
H        2.99349000       3.57763000       8.00706000
H        5.05251000       2.24401000       8.45393000
H        7.14365000       2.70319000       7.08511000
H        7.04759000       4.49484000       5.32939000
S        4.16278000       3.20424000       2.88212000
C        5.82089000       3.51432000       2.36873000
H        5.69794000       4.27743000       1.56182000
H        6.35219000       3.92174000       3.25566000
H        6.32335000       2.60325000       1.99055000
C        3.66242000       6.87490000       4.87013000
O        4.93097000       6.07445000       4.65521000
H        3.61966000       7.64026000       4.06840000
H        2.82539000       6.14925000       4.81258000
H        3.74628000       7.32161000       5.88215000
H        3.90822000       4.31025000       3.29671000
21
Properties=species:S:1:pos:R:3 energy=-90.97503228899754 pbc="F F F"
N        3.89826000       4.78882000       6.49092000
C        3.90145000       3.82425000       7.44353000
C        5.05826000       3.05902000       7.69928000
C        6.22099000       3.30969000       6.94351000
C        6.16198000       4.31437000       5.97061000
C        4.98674000       5.05960000       5.75913000
H        2.99721000       3.62119000       8.03564000
H        5.05062000       2.27715000       8.47710000
H        7.14362000       2.73293000       7.11003000
H        7.05507000       4.53243000       5.36159000
S        4.14540000       3.28945000       2.86439000
C        5.81966000       3.56160000       2.38348000
H        5.74843000       4.41706000       1.66921000
H        6.36408000       3.83358000       3.31404000
H        6.27219000       2.67192000       1.90449000
C        3.65717000       6.89793000       4.87824000
O        4.94474000       6.12119000       4.69180000
H        3.62562000       7.67278000       4.08517000
H        2.83464000       6.15943000       4.78598000
H        3.70281000       7.33250000       5.89791000
H        3.94357000       4.36445000       3.37738000
