21
Properties=species:S:1:pos:R:3 energy=-102.53957532849607 pbc="F F F"
N        3.58895000       4.20782000       6.41560000
C        3.83555000       3.33889000       7.41093000
C        5.09780000       2.74779000       7.63962000
C        6.17107000       3.08540000       6.77282000
C        5.91221000       3.98535000       5.72395000
C        4.60661000       4.48857000       5.63790000
H        2.98481000       3.10573000       8.05092000
H        5.24419000       2.05414000       8.45475000
H        7.15190000       2.66218000       6.90686000
H        6.68009000       4.27744000       5.02379000
S        4.20979000       3.63644000       2.89881000
C        5.97346000       3.36112000       2.17243000
H        5.95179000       2.97760000       1.15023000
H        6.56187000       4.28015000       2.13099000
H        6.57781000       2.65381000       2.73985000
C        3.79247000       6.61592000       4.70401000
O        4.58971000       5.35561000       4.45900000
H        3.77651000       7.25139000       3.81609000
H        2.76048000       6.38990000       4.98051000
H        4.22091000       7.19074000       5.52874000
H        4.03757000       4.55039000       1.97519000
