! RI-MP2 6-311G(d) autoaux nofrozencore tightscf engrad 
%pal nprocs 1 end 
*xyz -1 1 
C   0.09809351300585101 -0.02991333255481149 0.033247679452674414
C   1.5914151669115932 0.15721272169966055 0.022050589233574728
H   2.0502175631400528 -0.8256209633934743 0.1292968113493928
F   -0.5417961498120973 1.225040958597604 -0.08162771882199406
Cl   0.8416215630280417 -3.388981425365315 -0.19392360245613943
H   -0.23152089204233772 -0.6555741983939966 -0.7921119880664794
H   -0.240918265641358 -0.4857854891913551 0.9624747329992963
H   1.9039225001335953 0.8113868087378617 0.8398757122503455
H   1.9148565112766598 0.6015005098638271 -0.9218697659406709
*
