10
Properties=species:S:1:pos:R:3:mp2_forces:R:3:forces:R:3 R1=H R2=CN R3=H R4=H lg=F nu=Cl rxn-id=320 mp2_energy=-19877.988132296552 energy=-19877.988125239935 free_energy=-19877.988125239935 pbc="F F F"
C        0.77658372      -0.04800393       0.03496330      -0.04449715      -0.00434376      -0.01173595      -0.04451721      -0.00434508      -0.01173462
C        1.22499486       1.38087048      -0.16748900      -0.01942238      -0.05445787       0.01886565      -0.01942013      -0.05445128       0.01885881
H        2.30369405       1.38328458      -0.32057979      -0.00352941      -0.00643783       0.05853352      -0.00354003      -0.00643878       0.05853556
F       -0.63018402      -0.09157815       0.01707304      -0.06146406      -0.03235826      -0.02340575      -0.06146021      -0.03233660      -0.02340728
Cl       3.80906735      -0.64805247      -1.15157478       0.00519058      -0.02001396      -0.06547189       0.00518962      -0.02001392      -0.06547121
H        1.15335698      -0.68901387      -0.76136092       0.04290666       0.04818998       0.00723824       0.04292485       0.04817790       0.00721972
H        0.93502339       1.99950981       0.68505521       0.00368964       0.00466448      -0.02413230       0.00368890       0.00466202      -0.02413502
H        0.73882278       1.75701003      -1.07104375       0.03620711       0.00747357       0.02323210       0.03620772       0.00747631       0.02323325
C        1.19032120      -0.61571107       1.32843547       0.07803133       0.00759539      -0.00312558       0.07806322       0.00757278      -0.00304613
N        1.45168960      -1.07349695       2.37652085      -0.03711233       0.04968825       0.02000198      -0.03713673       0.04969665       0.01994691
10
Properties=species:S:1:pos:R:3:mp2_forces:R:3:forces:R:3 R1=H R2=CN R3=H R4=H lg=F nu=Cl rxn-id=320 mp2_energy=-19877.988132296552 energy=-19878.01466557519 free_energy=-19877.988125239935 pbc="F F F"
C        0.80679180      -0.07200446       0.05571963      -0.04449715      -0.00434376      -0.01173595       0.00544688      -0.00202548       0.00381758
C        1.24221972       1.36382107      -0.12074814      -0.01942238      -0.05445787       0.01886565       0.00247215      -0.00109424       0.00468078
H        2.33165447       1.38814710      -0.15440617      -0.00352941      -0.00643783       0.05853352       0.00250222       0.00137349       0.01054336
F       -0.58703613      -0.16557915      -0.09089723      -0.06146406      -0.03235826      -0.02340575       0.00778935      -0.00991441      -0.01536977
Cl       3.69483118      -0.62224129      -1.51090840       0.00519058      -0.02001396      -0.06547189      -0.01501296       0.00463009      -0.04012872
H        1.28663666      -0.69999425      -0.69670733       0.04290666       0.04818998       0.00723824       0.01891198      -0.00116759       0.01202769
H        0.85466232       1.99107613       0.68226149       0.00368964       0.00466448      -0.02413230      -0.00246348       0.00029789       0.00073684
H        0.86325910       1.72123977      -1.07995857       0.03620711       0.00747357       0.02323210       0.00825037      -0.00447602       0.00149967
C        1.12824943      -0.58341417       1.39786461       0.07803133       0.00759539      -0.00312558      -0.00992119       0.00388789       0.00958732
N        1.33210135      -0.96623229       2.48777973      -0.03711233       0.04968825       0.02000198      -0.01797532       0.00848838       0.01260526
10
Properties=species:S:1:pos:R:3:mp2_forces:R:3:forces:R:3 R1=H R2=CN R3=H R4=H lg=F nu=Cl rxn-id=320 mp2_energy=-19877.988132296552 energy=-19878.015804973853 free_energy=-19877.988125239935 pbc="F F F"
C        0.81377961      -0.06809591       0.05599089      -0.04449715      -0.00434376      -0.01173595       0.00578103      -0.00238297       0.00435028
C        1.23851726       1.37142712      -0.11456283      -0.01942238      -0.05445787       0.01886565       0.00208032      -0.00149146       0.00534088
H        2.32676930       1.41712090      -0.07768563      -0.00352941      -0.00643783       0.05853352       0.00311270      -0.00201014       0.00097286
F       -0.57956257      -0.16862924      -0.08783506      -0.06146406      -0.03235826      -0.02340575       0.00863631      -0.01329336      -0.02199000
Cl       3.64892947      -0.66146937      -1.53434395       0.00519058      -0.02001396      -0.06547189      -0.01155743       0.00585845      -0.04484072
H        1.29748985      -0.68979721      -0.69936172       0.04290666       0.04818998       0.00723824       0.02389928      -0.00095642       0.01566150
H        0.78834302       2.00064085       0.65422562       0.00368964       0.00466448      -0.02413230       0.00632757      -0.00014813       0.00687535
H        0.91932095       1.71064578      -1.10142270       0.03620711       0.00747357       0.02323210      -0.00076637      -0.00250493       0.00559500
C        1.14298424      -0.58367688       1.39471521       0.07803133       0.00759539      -0.00312558      -0.01455870       0.00544647       0.01223634
N        1.35679878      -0.97334758       2.48027981      -0.03711233       0.04968825       0.02000198      -0.02295470       0.01148249       0.01579850
10
Properties=species:S:1:pos:R:3:mp2_forces:R:3:forces:R:3 R1=H R2=CN R3=H R4=H lg=F nu=Cl rxn-id=320 mp2_energy=-19877.988132296552 energy=-19878.010618786004 free_energy=-19877.988125239935 pbc="F F F"
C        0.81591975      -0.06453362       0.05751198      -0.04449715      -0.00434376      -0.01173595       0.00511456      -0.00263720       0.00522819
C        1.23841221       1.37593367      -0.11287945      -0.01942238      -0.05445787       0.01886565       0.00077202      -0.00204081       0.00682374
H        2.31825910       1.44322343       0.01240227      -0.00352941      -0.00643783       0.05853352       0.00528612      -0.00839172      -0.01181535
F       -0.57942422      -0.16171274      -0.06748430      -0.06146406      -0.03235826      -0.02340575       0.00812604      -0.01634448      -0.03220338
Cl       3.59747271      -0.67870295      -1.54337974       0.00519058      -0.02001396      -0.06547189      -0.00144061       0.00531348      -0.05452457
H        1.28959162      -0.68475333      -0.70525545       0.04290666       0.04818998       0.00723824       0.03097489      -0.00043297       0.02025316
H        0.71601936       2.01185550       0.60373349       0.00368964       0.00466448      -0.02413230       0.01674587      -0.00061282       0.01818508
H        1.00019021       1.69077602      -1.12993542       0.03620711       0.00747357       0.02323210      -0.01505033       0.00076435       0.01007111
C        1.16286342      -0.58791075       1.38881134       0.07803133       0.00759539      -0.00312558      -0.02179684       0.00826591       0.01693399
N        1.39406574      -0.98935676       2.46647491      -0.03711233       0.04968825       0.02000198      -0.02873172       0.01611627       0.02104802
10
Properties=species:S:1:pos:R:3:mp2_forces:R:3:forces:R:3 R1=H R2=CN R3=H R4=H lg=F nu=Cl rxn-id=320 mp2_energy=-19877.988132296552 energy=-19877.99285485072 free_energy=-19877.988125239935 pbc="F F F"
C        0.80602919      -0.06118248       0.05553856      -0.04449715      -0.00434376      -0.01173595       0.00343676      -0.00290543       0.00642807
C        1.24085833       1.37575224      -0.12201760      -0.01942238      -0.05445787       0.01886565      -0.00135033      -0.00243009       0.00915347
H        2.30952957       1.45293947       0.06868799      -0.00352941      -0.00643783       0.05853352       0.00642873      -0.01349104      -0.02298390
F       -0.59478715      -0.13801521      -0.02045823      -0.06146406      -0.03235826      -0.02340575       0.00549889      -0.01613802      -0.04130755
Cl       3.56972897      -0.66317795      -1.48468041       0.00519058      -0.02001396      -0.06547189       0.01854587       0.00050164      -0.06953212
H        1.24334630      -0.68659285      -0.72370905       0.04290666       0.04818998       0.00723824       0.03633184      -0.00006152       0.02395372
H        0.67113175       2.02231464       0.54837774       0.00368964       0.00466448      -0.02413230       0.02477697      -0.00196492       0.03011131
H        1.06805076       1.67096894      -1.15791462       0.03620711       0.00747357       0.02323210      -0.02987259       0.00393909       0.01561036
C        1.19030261      -0.59977635       1.37070257       0.07803133       0.00759539      -0.00312558      -0.02961348       0.01090851       0.02190388
N        1.44917959      -1.01841199       2.43547269      -0.03711233       0.04968825       0.02000198      -0.03418265       0.02164178       0.02666277
10
Properties=species:S:1:pos:R:3:mp2_forces:R:3:forces:R:3 R1=H R2=CN R3=H R4=H lg=F nu=Cl rxn-id=320 mp2_energy=-19877.988132296552 energy=-19877.983477594247 free_energy=-19877.988125239935 pbc="F F F"
C        0.79260025      -0.05838319       0.05063307      -0.04449715      -0.00434376      -0.01173595       0.00573278      -0.00399603       0.00474545
C        1.23861173       1.37451728      -0.13175157      -0.01942238      -0.05445787       0.01886565      -0.00094313      -0.00287790       0.00905052
H        2.31103934       1.43914600       0.03994704      -0.00352941      -0.00643783       0.05853352       0.00689156      -0.01124866      -0.02508918
F       -0.61102532      -0.11931992       0.00743512      -0.06146406      -0.03235826      -0.02340575       0.00540979      -0.01570654      -0.04010229
Cl       3.60371598      -0.65139074      -1.40774664       0.00519058      -0.02001396      -0.06547189       0.01665702       0.00023139      -0.06837849
H        1.20237443      -0.68749628      -0.73981795       0.04290666       0.04818998       0.00723824       0.03878998      -0.00051299       0.02169674
H        0.68678209       2.02521199       0.54959916       0.00368964       0.00466448      -0.02413230       0.02551212      -0.00534185       0.03196055
H        1.04936945       1.67467068      -1.16341791       0.03620711       0.00747357       0.02323210      -0.03120689       0.00564912       0.01668045
C        1.20198042      -0.60758921       1.35397788       0.07803133       0.00759539      -0.00312558      -0.02850813       0.01012625       0.02101702
N        1.47792154      -1.03454815       2.41114143      -0.03711233       0.04968825       0.02000198      -0.03833510       0.02367720       0.02841923
10
Properties=species:S:1:pos:R:3:mp2_forces:R:3:forces:R:3 R1=H R2=CN R3=H R4=H lg=F nu=Cl rxn-id=320 mp2_energy=-19877.988132296552 energy=-19877.973996180503 free_energy=-19877.988125239935 pbc="F F F"
C        0.78226631      -0.05419708       0.04489948      -0.04449715      -0.00434376      -0.01173595       0.00685415      -0.00422897       0.00313836
C        1.23367374       1.37668254      -0.13969015      -0.01942238      -0.05445787       0.01886565      -0.00019130      -0.00322025       0.00808424
H        2.30882070       1.43429464       0.01545000      -0.00352941      -0.00643783       0.05853352       0.00830953      -0.01233132      -0.02758982
F       -0.62295740      -0.10268824       0.03381959      -0.06146406      -0.03235826      -0.02340575       0.00397713      -0.01893123      -0.04130850
Cl       3.63819697      -0.65975984      -1.33308286       0.00519058      -0.02001396      -0.06547189       0.00907540       0.00369892      -0.06465312
H        1.16647516      -0.68376468      -0.75727003       0.04290666       0.04818998       0.00723824       0.04261875      -0.00139352       0.02090896
H        0.69531452       2.02735795       0.55240453       0.00368964       0.00466448      -0.02413230       0.02878415      -0.00670064       0.03375245
H        1.02773059       1.68216500      -1.16654156       0.03620711       0.00747357       0.02323210      -0.03108824       0.00811269       0.01619552
C        1.21675824      -0.61502844       1.33505636       0.07803133       0.00759539      -0.00312558      -0.02829818       0.01042893       0.02136179
N        1.50709108      -1.05024340       2.38495427      -0.03711233       0.04968825       0.02000198      -0.04004139       0.02456540       0.03011012
10
Properties=species:S:1:pos:R:3:mp2_forces:R:3:forces:R:3 R1=H R2=CN R3=H R4=H lg=F nu=Cl rxn-id=320 mp2_energy=-19877.988132296552 energy=-19877.953468477455 free_energy=-19877.988125239935 pbc="F F F"
C        0.77517611      -0.04909437       0.04075846      -0.04449715      -0.00434376      -0.01173595       0.00461120      -0.00285984       0.00282934
C        1.23099437       1.38100134      -0.14794130      -0.01942238      -0.05445787       0.01886565      -0.00155848      -0.00310992       0.00872382
H        2.29860641       1.45054034       0.04445996      -0.00352941      -0.00643783       0.05853352       0.01198585      -0.02174901      -0.03290012
F       -0.63078805      -0.08190459       0.07865666      -0.06146406      -0.03235826      -0.02340575      -0.00048563      -0.02399629      -0.04891295
Cl       3.63388939      -0.67280563      -1.26110085       0.00519058      -0.02001396      -0.06547189       0.01263452       0.00472564      -0.06759827
H        1.12216178      -0.67846947      -0.77750112       0.04290666       0.04818998       0.00723824       0.04973571      -0.00125985       0.02352247
H        0.66277469       2.03433974       0.51769024       0.00368964       0.00466448      -0.02413230       0.03563595      -0.00279120       0.04243548
H        1.05961243       1.67531346      -1.18400316       0.03620711       0.00747357       0.02323210      -0.03952491       0.01075662       0.01535703
C        1.24591626      -0.62704524       1.31038072       0.07803133       0.00759539      -0.00312558      -0.03252991       0.01275771       0.02405426
N        1.55502652      -1.07705711       2.34860002      -0.03711233       0.04968825       0.02000198      -0.04050429       0.02752614       0.03248894
10
Properties=species:S:1:pos:R:3:mp2_forces:R:3:forces:R:3 R1=H R2=CN R3=H R4=H lg=F nu=Cl rxn-id=320 mp2_energy=-19877.988132296552 energy=-19877.915850669193 free_energy=-19877.988125239935 pbc="F F F"
C        0.77718661      -0.04584349       0.03753954      -0.04449715      -0.00434376      -0.01173595      -0.01021865       0.00194295       0.00708580
C        1.23590877       1.38563399      -0.15916371      -0.01942238      -0.05445787       0.01886565      -0.01146429      -0.00177513       0.01511951
H        2.27983772       1.49514188       0.12017324      -0.00352941      -0.00643783       0.05853352       0.00992786      -0.05090407      -0.03372786
F       -0.62650539      -0.05891461       0.14969889      -0.06146406      -0.03235826      -0.02340575      -0.01964785      -0.02641455      -0.06709371
Cl       3.57810912      -0.67649000      -1.19306025       0.00519058      -0.02001396      -0.06547189       0.04822568      -0.00332955      -0.08315009
H        1.06768162      -0.67572454      -0.80097100       0.04290666       0.04818998       0.00723824       0.06002377       0.00312704       0.03019833
H        0.59689545       2.03712950       0.44148659       0.00368964       0.00466448      -0.02413230       0.04289528       0.02320990       0.04867326
H        1.14718074       1.65416405      -1.21218461       0.03620711       0.00747357       0.02323210      -0.05168607       0.00613911       0.01918428
C        1.29304095      -0.64625318       1.27834065       0.07803133       0.00759539      -0.00312558      -0.04693217       0.01924632       0.03341453
N        1.60403433      -1.11402515       2.30814030      -0.03711233       0.04968825       0.02000198      -0.02112357       0.02875798       0.03029596
10
Properties=species:S:1:pos:R:3:mp2_forces:R:3:forces:R:3 R1=H R2=CN R3=H R4=H lg=F nu=Cl rxn-id=320 mp2_energy=-19877.988132296552 energy=-19877.864833561252 free_energy=-19877.988125239935 pbc="F F F"
C        0.78905456      -0.04773944       0.02707766      -0.04449715      -0.00434376      -0.01173595      -0.05802558       0.01495788       0.02274581
C        1.24880712       1.38693407      -0.17785454      -0.01942238      -0.05445787       0.01886565      -0.04285521       0.00287102       0.02763995
H        2.27286972       1.54677814       0.14818225      -0.00352941      -0.00643783       0.05853352      -0.00351302      -0.11762602      -0.02077000
F       -0.60634254      -0.03706773       0.23064631      -0.06146406      -0.03235826      -0.02340575      -0.06310920      -0.01997749      -0.08723940
Cl       3.52040783      -0.66296787      -1.08887947       0.00519058      -0.02001396      -0.06547189       0.13594795      -0.02976019      -0.11234749
H        1.00168764      -0.67756916      -0.83371533       0.04290666       0.04818998       0.00723824       0.08737439       0.01495570       0.04276014
H        0.56123011       2.01613736       0.38972332       0.00368964       0.00466448      -0.02413230       0.03882495       0.09521036       0.04633304
H        1.19761687       1.64846234      -1.23535030       0.03620711       0.00747357       0.02323210      -0.05793554      -0.01509498       0.02451637
C        1.34763604      -0.67173163       1.23615584       0.07803133       0.00759539      -0.00312558      -0.06502776       0.03329201       0.04163820
N        1.62040257      -1.14641763       2.27401390      -0.03711233       0.04968825       0.02000198       0.02831901       0.02117171       0.01472336
10
Properties=species:S:1:pos:R:3:mp2_forces:R:3:forces:R:3 R1=H R2=CN R3=H R4=H lg=F nu=Cl rxn-id=320 mp2_energy=-19877.988132296552 energy=-19877.666207104827 free_energy=-19877.988125239935 pbc="F F F"
C        0.84757732      -0.06330619       0.00314990      -0.04449715      -0.00434376      -0.01173595      -0.55745936       0.06144962       0.16248458
C        1.29508478       1.38536644      -0.20693178      -0.01942238      -0.05445787       0.01886565      -0.17142847      -0.01674507       0.05421026
H        2.26256350       1.68218354       0.20422577      -0.00352941      -0.00643783       0.05853352      -0.04333846      -0.27740729       0.01051068
F       -0.53917276      -0.01015697       0.33748093      -0.06146406      -0.03235826      -0.02340575      -0.06349657       0.00054814      -0.08886901
Cl       3.36754516      -0.63770684      -0.96859011       0.00519058      -0.02001396      -0.06547189       0.48168828      -0.12937414      -0.23206868
H        0.89196300      -0.69161319      -0.88238932       0.04290666       0.04818998       0.00723824       0.27107491       0.03037650       0.04634461
H        0.49880305       1.91835212       0.31061427       0.00368964       0.00466448      -0.02413230       0.04687443       0.37004044       0.02445195
H        1.29344056       1.65611108      -1.26382820       0.03620711       0.00747357       0.02323210      -0.04934619      -0.08016635       0.03286284
C        1.42351603      -0.70979544       1.18673631       0.07803133       0.00759539      -0.00312558      -0.00757266       0.03227363       0.01759575
N        1.61204928      -1.17461611       2.24953186      -0.03711233       0.04968825       0.02000198       0.09300410       0.00900451      -0.02752298
10
Properties=species:S:1:pos:R:3:mp2_forces:R:3:forces:R:3 R1=H R2=CN R3=H R4=H lg=F nu=Cl rxn-id=320 mp2_energy=-19877.988132296552 energy=-19877.21588399047 free_energy=-19877.988125239935 pbc="F F F"
C        0.97716370      -0.07797136      -0.03510759      -0.04449715      -0.00434376      -0.01173595      -3.70407865       0.30833590       1.02387497
C        1.33473003       1.38910848      -0.21993258      -0.01942238      -0.05445787       0.01886565      -0.16136005      -0.11790019       0.02054651
H        2.27041024       1.74653842       0.20680169      -0.00352941      -0.00643783       0.05853352      -0.04467302      -0.24510449       0.01401800
F       -0.52466893      -0.00994567       0.36184278      -0.06146406      -0.03235826      -0.02340575       2.33745914      -0.11454912      -0.71182236
Cl       3.25393352      -0.60812448      -0.91425482       0.00519058      -0.02001396      -0.06547189       0.63896633      -0.17941594      -0.27770169
H        0.82657879      -0.69810058      -0.89353339       0.04290666       0.04818998       0.00723824       0.51424628      -0.03701472      -0.08889104
H        0.48478971       1.83217607       0.30043178       0.00368964       0.00466448      -0.02413230       0.10508408       0.49678664       0.01206855
H        1.31080754       1.67477884      -1.27202140       0.03620711       0.00747357       0.02323210      -0.01114611      -0.06705569       0.02621226
C        1.42697442      -0.71843354       1.18348631       0.07803133       0.00759539      -0.00312558       0.24588942      -0.02176227      -0.04407563
N        1.59265089      -1.17520773       2.25228685      -0.03711233       0.04968825       0.02000198       0.07961256      -0.02232012       0.02577043
10
Properties=species:S:1:pos:R:3:mp2_forces:R:3:forces:R:3 R1=H R2=CN R3=H R4=H lg=F nu=Cl rxn-id=320 mp2_energy=-19877.988132296552 energy=-19876.468079522067 free_energy=-19877.988125239935 pbc="F F F"
C        1.12950270      -0.09074014      -0.07705935      -0.04449715      -0.00434376      -0.01173595      -1.84943771       0.23109561       0.55536398
C        1.34155313       1.39394551      -0.22087037      -0.01942238      -0.05445787       0.01886565       0.00306024      -0.01511262       0.00494010
H        2.27220794       1.75651327       0.20645895      -0.00352941      -0.00643783       0.05853352       0.00060093      -0.12836398      -0.00132313
F       -0.61994873      -0.00533690       0.39115520      -0.06146406      -0.03235826      -0.02340575       0.61685218      -0.01558931      -0.23664278
Cl       3.22699539      -0.60044244      -0.90245493       0.00519058      -0.02001396      -0.06547189       0.37720339      -0.09642869      -0.15849104
H        0.80494677      -0.69654057      -0.88971170       0.04290666       0.04818998       0.00723824       0.41730390      -0.11901457      -0.17125055
H        0.48032339       1.81116810       0.29967694       0.00368964       0.00466448      -0.02413230       0.06034902       0.26149161      -0.00314491
H        1.31162529       1.67768680      -1.27311552       0.03620711       0.00747357       0.02323210       0.01672962      -0.03348383       0.00091639
C        1.41645760      -0.71685092       1.18374558       0.07803133       0.00759539      -0.00312558       0.30471781      -0.06258938      -0.02451739
N        1.58970643      -1.17458426       2.25217482      -0.03711233       0.04968825       0.02000198       0.05262062      -0.02200484       0.03414934
10
Properties=species:S:1:pos:R:3:mp2_forces:R:3:forces:R:3 R1=H R2=CN R3=H R4=H lg=F nu=Cl rxn-id=320 mp2_energy=-19877.988132296552 energy=-19876.29872113781 free_energy=-19877.988125239935 pbc="F F F"
C        1.23459585      -0.10396402      -0.10881710      -0.04449715      -0.00434376      -0.01173595      -0.48149949       0.06877728       0.14642600
C        1.34133479       1.39472441      -0.22123583      -0.01942238      -0.05445787       0.01886565      -0.00708184       0.00354421       0.00240782
H        2.27202155       1.76342974       0.20693095      -0.00352941      -0.00643783       0.05853352      -0.00322862      -0.04151318       0.00318185
F       -0.65498597      -0.00433836       0.40510945      -0.06146406      -0.03235826      -0.02340575       0.15607594       0.00255657      -0.04905151
Cl       3.20541984      -0.59475540      -0.89325440       0.00519058      -0.02001396      -0.06547189       0.12863707      -0.02800843      -0.05173680
H        0.78105340      -0.68989427      -0.88014295       0.04290666       0.04818998       0.00723824       0.09580781      -0.04665110      -0.06223168
H        0.47668782       1.79619423       0.29953263       0.00368964       0.00466448      -0.02413230       0.01026706       0.07398771      -0.00371947
H        1.31116040       1.67976753      -1.27319773       0.03620711       0.00747357       0.02323210       0.01097708      -0.00756776       0.00052803
C        1.39912343      -0.71321571       1.18490586       0.07803133       0.00759539      -0.00312558       0.07395026      -0.01880486       0.00072336
N        1.58695881      -1.17312969       2.25016873      -0.03711233       0.04968825       0.02000198       0.01609474      -0.00632045       0.01347239
10
Properties=species:S:1:pos:R:3:mp2_forces:R:3:forces:R:3 R1=H R2=CN R3=H R4=H lg=F nu=Cl rxn-id=320 mp2_energy=-19877.988132296552 energy=-19876.313053454483 free_energy=-19877.988125239935 pbc="F F F"
C        1.33360932      -0.12059170      -0.14086348      -0.04449715      -0.00434376      -0.01173595       0.56591371      -0.09675101      -0.18760375
C        1.34418648       1.39184327      -0.22253811      -0.01942238      -0.05445787       0.01886565       0.01532920      -0.01790446      -0.00905046
H        2.27236930       1.77130439       0.20821122      -0.00352941      -0.00643783       0.05853352      -0.00117987       0.03843113       0.01525837
F       -0.68592790      -0.00549459       0.41600172      -0.06146406      -0.03235826      -0.02340575      -0.17614486      -0.00426477       0.07273690
Cl       3.17134488      -0.58700213      -0.87903621       0.00519058      -0.02001396      -0.06547189      -0.19746943       0.04800606       0.08470886
H        0.76317234      -0.67769025      -0.86463864       0.04290666       0.04818998       0.00723824      -0.10457452       0.06746094       0.08527479
H        0.47432473       1.77888788       0.29872736       0.00368964       0.00466448      -0.02413230      -0.01784238      -0.10117968      -0.01114408
H        1.31072620       1.68224386      -1.27359919       0.03620711       0.00747357       0.02323210       0.00699141       0.01737395      -0.00303801
C        1.38492739      -0.70847453       1.18215403       0.07803133       0.00759539      -0.00312558      -0.08191826       0.02792178      -0.01831802
N        1.58463717      -1.17020773       2.24558092      -0.03711233       0.04968825       0.02000198      -0.00910500       0.02090608      -0.02882460
10
Properties=species:S:1:pos:R:3:mp2_forces:R:3:forces:R:3 R1=H R2=CN R3=H R4=H lg=F nu=Cl rxn-id=320 mp2_energy=-19877.988132296552 energy=-19876.420211957164 free_energy=-19877.988125239935 pbc="F F F"
C        1.42666018      -0.13395725      -0.16985124      -0.04449715      -0.00434376      -0.01173595       0.43327423      -0.06392593      -0.13975868
C        1.35882391       1.38575522      -0.22666983      -0.01942238      -0.05445787       0.01886565       0.06785108      -0.02988257      -0.02103965
H        2.27378941       1.78977463       0.21231496      -0.00352941      -0.00643783       0.05853352       0.00448958       0.07955907       0.02577176
F       -0.73575815      -0.00802854       0.42913489      -0.06146406      -0.03235826      -0.02340575      -0.23172642      -0.01076687       0.07340735
Cl       3.14152617      -0.58558232      -0.86834140       0.00519058      -0.02001396      -0.06547189      -0.14061186       0.01068403       0.05363841
H        0.74580870      -0.65074746      -0.83521751       0.04290666       0.04818998       0.00723824      -0.08213847       0.12368059       0.13299764
H        0.47094187       1.73404304       0.29452200       0.00368964       0.00466448      -0.02413230      -0.01921445      -0.21258362      -0.02514409
H        1.31340209       1.68705522      -1.27469658       0.03620711       0.00747357       0.02323210       0.02091172       0.02606962      -0.00586387
C        1.37881564      -0.70012100       1.17269571       0.07803133       0.00759539      -0.00312558      -0.03105314       0.04042242      -0.04742495
N        1.57936009      -1.16337308       2.23610863      -0.03711233       0.04968825       0.02000198      -0.02178226       0.03674326      -0.04658391
10
Properties=species:S:1:pos:R:3:mp2_forces:R:3:forces:R:3 R1=H R2=CN R3=H R4=H lg=F nu=Cl rxn-id=320 mp2_energy=-19877.988132296552 energy=-19876.486834717314 free_energy=-19877.988125239935 pbc="F F F"
C        1.48602731      -0.13276820      -0.18300679      -0.04449715      -0.00434376      -0.01173595       0.05261773      -0.00015629      -0.01308935
C        1.38851087       1.38140711      -0.22781747      -0.01942238      -0.05445787       0.01886565       0.02538854      -0.00515171      -0.00137987
H        2.26287961       1.83165383       0.24711016      -0.00352941      -0.00643783       0.05853352      -0.01294088       0.03533166       0.03487862
F       -0.81163038      -0.01015319       0.40990180      -0.06146406      -0.03235826      -0.02340575      -0.06910202       0.00586635      -0.01394613
Cl       3.12237339      -0.62152141      -0.90017052       0.00519058      -0.02001396      -0.06547189      -0.01840766      -0.03174791      -0.02753572
H        0.70867388      -0.59699030      -0.77601997       0.04290666       0.04818998       0.00723824      -0.03100574       0.04538051       0.04881569
H        0.45369278       1.62796306       0.27001061       0.00368964       0.00466448      -0.02413230      -0.01867663      -0.09951485      -0.02395671
H        1.34506173       1.70147080      -1.27133216       0.03620711       0.00747357       0.02323210       0.03190031       0.01464152       0.00326060
C        1.41599475      -0.68379470       1.16578029       0.07803133       0.00759539      -0.00312558       0.03466292       0.01476577      -0.00649853
N        1.58178597      -1.14244854       2.23554368      -0.03711233       0.04968825       0.02000198       0.00556345       0.02058496      -0.00054860
10
Properties=species:S:1:pos:R:3:mp2_forces:R:3:forces:R:3 R1=H R2=CN R3=H R4=H lg=F nu=Cl rxn-id=320 mp2_energy=-19877.988132296552 energy=-19876.516439939678 free_energy=-19877.988125239935 pbc="F F F"
C        1.51051579      -0.13494544      -0.17818335      -0.04449715      -0.00434376      -0.01173595       0.00841942      -0.00082440       0.00103453
C        1.40292581       1.37687722      -0.21300076      -0.01942238      -0.05445787       0.01886565       0.00576250      -0.00165163       0.00528114
H        2.23202577       1.85015421       0.31693955      -0.00352941      -0.00643783       0.05853352      -0.01062731       0.00711936       0.02496204
F       -0.88027849      -0.00349058       0.30168387      -0.06146406      -0.03235826      -0.02340575      -0.02596720       0.00023994      -0.04151141
Cl       3.07811263      -0.66886401      -0.97650917       0.00519058      -0.02001396      -0.06547189      -0.01724611      -0.01875996      -0.02501796
H        0.65971709      -0.56406690      -0.69890665       0.04290666       0.04818998       0.00723824      -0.02057118       0.01369720       0.02779281
H        0.42653362       1.56635522       0.23335700       0.00368964       0.00466448      -0.02413230      -0.00905378      -0.02315388      -0.01245530
H        1.40102896       1.71226085      -1.25265576       0.03620711       0.00747357       0.02323210       0.02007327       0.00533615       0.00699510
C        1.49267197      -0.67139595       1.17775235       0.07803133       0.00759539      -0.00312558       0.03115219       0.00521135       0.00422286
N        1.63011676      -1.10806617       2.25952255      -0.03711233       0.04968825       0.02000198       0.01805820       0.01278587       0.00869620
10
Properties=species:S:1:pos:R:3:mp2_forces:R:3:forces:R:3 R1=H R2=CN R3=H R4=H lg=F nu=Cl rxn-id=320 mp2_energy=-19877.988132296552 energy=-19876.53720131742 free_energy=-19877.988125239935 pbc="F F F"
C        1.52053669      -0.13650918      -0.16281646      -0.04449715      -0.00434376      -0.01173595       0.00410823      -0.00127929       0.00553470
C        1.41308385       1.37576834      -0.19516125      -0.01942238      -0.05445787       0.01886565       0.00491223      -0.00093090       0.00808796
H        2.22871275       1.85883943       0.34677356      -0.00352941      -0.00643783       0.05853352      -0.00522168       0.00352023       0.01990215
F       -0.92996618      -0.02687707       0.15499875      -0.06146406      -0.03235826      -0.02340575      -0.02445673      -0.01077245      -0.06494575
Cl       3.03047156      -0.70031574      -1.02989338       0.00519058      -0.02001396      -0.06547189      -0.02399230      -0.01731229      -0.02506694
H        0.61095351      -0.53552104      -0.62119012       0.04290666       0.04818998       0.00723824      -0.02440641       0.01374511       0.03497396
H        0.42680736       1.55800446       0.23199440       0.00368964       0.00466448      -0.02413230      -0.00246565      -0.00627819      -0.00591349
H        1.41830373       1.71290649      -1.23444227       0.03620711       0.00747357       0.02323210       0.01431356       0.00272043       0.00918132
C        1.55623176      -0.66433156       1.19547108       0.07803133       0.00759539      -0.00312558       0.03199960       0.00426087       0.00722192
N        1.67823487      -1.08714568       2.28426532      -0.03711233       0.04968825       0.02000198       0.02520915       0.01232647       0.01102418
10
Properties=species:S:1:pos:R:3:mp2_forces:R:3:forces:R:3 R1=H R2=CN R3=H R4=H lg=F nu=Cl rxn-id=320 mp2_energy=-19877.988132296552 energy=-19876.55203872242 free_energy=-19877.988125239935 pbc="F F F"
C        1.52379886      -0.13663382      -0.15006382      -0.04449715      -0.00434376      -0.01173595       0.00158647      -0.00126963       0.01006176
C        1.41998367       1.37619793      -0.18327523      -0.01942238      -0.05445787       0.01886565       0.00524674      -0.00048611       0.01028587
H        2.24640745       1.86377878       0.33825198      -0.00352941      -0.00643783       0.05853352      -0.00444851       0.00302694       0.02315490
F       -0.95222931      -0.05468139       0.04886077      -0.06146406      -0.03235826      -0.02340575      -0.02517504      -0.01820114      -0.08506233
Cl       3.00552352      -0.71365236      -1.04919134       0.00519058      -0.02001396      -0.06547189      -0.03395673      -0.01905672      -0.02938220
H        0.58190211      -0.51649808      -0.57734964       0.04290666       0.04818998       0.00723824      -0.03004429       0.01685279       0.04307364
H        0.44352623       1.56758886       0.25904094       0.00368964       0.00466448      -0.02413230      -0.00205454       0.00040057      -0.00647792
H        1.39864440       1.70939679      -1.22385593       0.03620711       0.00747357       0.02323210       0.01767641       0.00114029       0.01014545
C        1.58747194      -0.66107514       1.20794756       0.07803133       0.00759539      -0.00312558       0.03624302       0.00468520       0.01041737
N        1.69834103      -1.07960311       2.29963434      -0.03711233       0.04968825       0.02000198       0.03492645       0.01290783       0.01378345
10
Properties=species:S:1:pos:R:3:mp2_forces:R:3:forces:R:3 R1=H R2=CN R3=H R4=H lg=F nu=Cl rxn-id=320 mp2_energy=-19876.514010806073 energy=-19876.514008536316 free_energy=-19876.514008536316 pbc="F F F"
C        1.51670258      -0.12733550      -0.17888309       0.04610743       0.02230408       0.04971297       0.04611482       0.02231661       0.04973201
C        1.41623714       1.38259501      -0.21547680      -0.01480254       0.02129364      -0.00573928      -0.01480706       0.02128318      -0.00574143
H        2.18309036       1.87697571       0.38417004       0.04021084      -0.03770095       0.03792527       0.04020944      -0.03770174       0.03792441
F       -0.89239447      -0.04777184       0.30581603      -0.04249676       0.03721703      -0.07546817      -0.04249719       0.03721436      -0.07546894
Cl       3.03761188      -0.70809303      -1.02078832      -0.01499359       0.01111801      -0.00394363      -0.01500544       0.01111915      -0.00395466
H        0.61900005      -0.53147054      -0.64942270      -0.01398782      -0.05095053       0.00039411      -0.01397768      -0.05095120       0.00039171
H        0.40486486       1.55035229       0.15578897      -0.05505995       0.00123764       0.04400449      -0.05505481       0.00124339       0.04400533
H        1.49187075       1.72789588      -1.24773957       0.00504846       0.01159356      -0.05419090       0.00504796       0.01159466      -0.05419006
C        1.52970513      -0.65751118       1.18007449       0.00790070      -0.04716784      -0.06617765       0.00786584      -0.04717441      -0.06615503
N        1.64668163      -1.11081832       2.25646059       0.04207323       0.03105535       0.07348278       0.04210411       0.03105600       0.07345667
