! RI-MP2 6-311G(d) autoaux nofrozencore tightscf engrad 
%pal nprocs 1 end 
*xyz -1 1 
C   0.09670477677356482 -0.03587772800721156 0.05903777666320976
C   1.5909772091130385 0.14945518734182778 0.038287876445345655
H   2.0558269369278674 -0.804740121009663 0.2835440423296499
F   -0.5404178197657767 1.2160753107914277 -0.09560163699122057
Cl   0.8428765796498557 -3.3382561732733333 -0.3582112951818888
H   -0.23661606553822456 -0.6899880786251796 -0.7412231693459727
H   -0.2406430657027845 -0.455636389124739 1.006395624724474
H   1.8870671888031698 0.915806108885693 0.7593925191680546
H   1.93011576973929 0.45242747302117875 -0.9542092878116522
*
