21
Properties=species:S:1:pos:R:3:forces:R:3 MeOH_NucSubs=T 5000=T 80.00=T 90.00=T energy=-21771.480479025973 free_energy=-21771.480479025973 stress="-1.5573441100246726e-10 1.4913569190922978e-10 -2.206083411519866e-10 1.4913569190922978e-10 -1.2520128573499077e-09 -4.514319279328871e-10 -2.206083411519866e-10 -4.514319279328871e-10 -1.3457812512397742e-09" pbc="F F F"
N       38.70104662      40.25814632      41.12247246       0.04282887       0.19304459       0.16012327
C       38.83574952      39.47221318      42.20247591       0.03771255       0.03477101       0.06016659
C       40.07411605      39.04893136      42.67759666      -0.00260993      -0.04944187       0.00797156
C       41.21005627      39.33805091      41.91300611       0.03188018      -0.04466695       0.02473133
C       41.07327312      40.08879644      40.75249377       0.02513920       0.11528221       0.09865419
C       39.80456753      40.59997006      40.47769441       0.07499397       0.26347353       0.21372631
H       37.91175699      39.22994324      42.72146693       0.00429010      -0.07229797      -0.01324240
H       40.14624562      38.52700674      43.62479435       0.00598103      -0.13884690      -0.03573302
H       42.19973876      39.04091909      42.24555969       0.00111678      -0.16178800      -0.04338407
H       41.91256165      40.35048346      40.11689340       0.02760399       0.11534857       0.10165760
S       39.15841602      39.23146979      37.85022755      -0.07316421      -0.14473892      -0.31027075
C       40.87703488      39.50807598      37.32757970      -0.00776402      -0.03820351      -0.08554532
H       40.95639127      39.29908726      36.26402826       0.15720494      -0.00203962      -0.08759263
H       41.17670071      40.54250630      37.49972708      -0.05884689      -0.03236588      -0.01120481
H       41.56288662      38.85569777      37.86949330      -0.07813646      -0.02897104       0.01222401
C       38.99596199      42.74042383      40.03562109      -0.00954293       0.07889804       0.01199943
O       39.71209706      41.60413689      39.54656565       0.05561309       0.06752396       0.13013337
H       38.49324992      43.20156423      39.18827863       0.05019216      -0.00205294      -0.06329471
H       38.26377036      42.42012710      40.77312647      -0.06129815       0.12234932      -0.01353026
H       39.71580591      43.43201726      40.47742618      -0.06661526       0.12981281       0.03879996
H       38.97272306      40.49464284      38.28508239      -0.15657902      -0.40509043      -0.19638967
