21
Properties=species:S:1:pos:R:3 energy=-103.35592626647669 pbc="F F F"
N        3.63762000       2.85302000       5.80142000
C        3.74792000       2.85939000       7.12155000
C        4.97110000       3.05042000       7.80950000
C        6.14550000       3.25041000       7.03900000
C        6.02675000       3.24444000       5.62631000
C        4.74333000       3.03768000       5.07952000
H        2.81786000       2.70375000       7.67114000
H        5.00905000       3.04502000       8.88854000
H        7.10188000       3.40206000       7.51508000
H        6.88734000       3.39179000       4.99084000
S        4.40561000       2.98871000       3.39828000
C        5.76517000       3.20027000       2.07819000
H        5.35990000       3.19782000       1.05839000
H        6.33236000       4.12987000       2.19665000
H        6.52751000       2.41557000       2.11568000
C        3.90737000       6.73112000       4.95082000
O        4.64638000       6.19405000       3.80968000
H        3.48045000       7.71690000       4.72159000
H        3.05302000       6.09142000       5.20956000
H        4.54378000       6.83275000       5.83840000
H        4.15600000       6.01844000       2.99719000
21
Properties=species:S:1:pos:R:3 energy=-103.34858038727592 pbc="F F F"
N        3.62638000       2.89710000       5.84304000
C        3.74976000       2.88509000       7.16189000
C        4.98460000       3.03324000       7.83945000
C        6.15638000       3.20952000       7.05929000
C        6.02340000       3.22435000       5.64790000
C        4.72943000       3.05945000       5.11186000
H        2.82112000       2.74947000       7.71916000
H        5.03316000       3.01363000       8.91792000
H        7.12141000       3.32808000       7.52725000
H        6.88155000       3.35510000       5.00558000
S        4.37352000       3.03790000       3.43368000
C        5.76238000       3.24121000       2.14303000
H        5.37872000       3.24612000       1.11491000
H        6.33640000       4.16451000       2.27587000
H        6.51604000       2.44877000       2.19535000
C        3.86418000       6.73699000       4.96136000
O        4.67975000       6.21667000       3.86552000
H        3.45642000       7.72790000       4.71967000
H        2.99241000       6.09597000       5.14897000
H        4.43729000       6.82138000       5.89279000
H        4.24688000       6.06011000       3.01724000
21
Properties=species:S:1:pos:R:3 energy=-103.34309049172211 pbc="F F F"
N        3.62315000       2.93593000       5.87365000
C        3.75527000       2.90800000       7.19136000
C        4.99764000       3.02272000       7.86159000
C        6.16746000       3.18220000       7.07491000
C        6.02500000       3.21473000       5.66473000
C        4.72422000       3.08241000       5.13619000
H        2.82781000       2.78674000       7.75386000
H        5.05328000       2.99087000       8.93944000
H        7.13804000       3.27520000       7.53714000
H        6.88138000       3.33392000       5.01784000
S        4.35627000       3.08452000       3.46043000
C        5.76457000       3.27835000       2.18943000
H        5.39448000       3.29688000       1.15651000
H        6.35005000       4.19214000       2.33686000
H        6.50610000       2.47473000       2.24580000
C        3.84701000       6.74925000       4.96930000
O        4.70136000       6.24032000       3.89794000
H        3.45845000       7.74825000       4.72925000
H        2.96252000       6.11371000       5.11016000
H        4.38283000       6.81147000       5.92437000
H        4.30200000       6.10501000       3.02973000
21
Properties=species:S:1:pos:R:3 energy=-103.33963437264124 pbc="F F F"
N        3.62631000       2.97042000       5.89979000
C        3.76453000       2.93030000       7.21653000
C        5.01179000       3.02123000       7.88130000
C        6.17987000       3.16978000       7.08992000
C        6.03085000       3.21574000       5.68080000
C        4.72569000       3.10645000       5.15785000
H        2.83817000       2.81853000       7.78280000
H        5.07233000       2.98004000       8.95857000
H        7.15402000       3.24486000       7.54792000
H        6.88571000       3.32753000       5.03058000
S        4.34942000       3.12642000       3.48400000
C        5.76492000       3.31232000       2.21978000
H        5.39901000       3.34372000       1.18567000
H        6.36156000       4.21729000       2.37653000
H        6.49583000       2.49877000       2.27271000
C        3.84154000       6.76635000       4.97544000
O        4.71399000       6.26207000       3.91656000
H        3.46482000       7.77040000       4.73758000
H        2.95001000       6.13574000       5.09200000
H        4.35831000       6.81527000       5.94171000
H        4.33153000       6.13963000       3.03883000
21
Properties=species:S:1:pos:R:3 energy=-103.33750085872933 pbc="F F F"
N        3.63191000       3.00401000       5.92266000
C        3.77438000       2.95430000       7.23862000
C        5.02494000       3.02737000       7.89936000
C        6.19170000       3.16850000       7.10470000
C        6.03816000       3.22480000       5.69642000
C        4.73006000       3.13247000       5.17758000
H        2.84886000       2.84908000       7.80750000
H        5.08887000       2.97867000       8.97612000
H        7.16822000       3.23039000       7.55959000
H        6.89184000       3.33127000       5.04376000
S        4.34811000       3.16521000       3.50516000
C        5.76297000       3.34207000       2.23893000
H        5.39525000       3.38320000       1.20577000
H        6.37011000       4.23935000       2.39932000
H        6.48472000       2.52000000       2.28579000
C        3.83885000       6.78171000       4.97722000
O        4.71919000       6.28017000       3.92360000
H        3.46923000       7.78906000       4.74221000
H        2.94325000       6.15464000       5.08102000
H        4.34646000       6.82180000       5.94874000
H        4.34477000       6.16641000       3.04120000
21
Properties=species:S:1:pos:R:3 energy=-103.33624763612659 pbc="F F F"
N        3.63705000       3.03402000       5.94012000
C        3.78241000       2.97737000       7.25549000
C        5.03517000       3.03765000       7.91336000
C        6.20096000       3.17388000       7.11641000
C        6.04435000       3.23748000       5.70877000
C        4.73433000       3.15699000       5.19286000
H        2.85753000       2.87667000       7.82621000
H        5.10142000       2.98333000       8.98970000
H        7.17903000       3.22647000       7.56911000
H        6.89718000       3.34009000       5.05438000
S        4.34858000       3.19773000       3.52142000
C        5.76026000       3.36480000       2.25037000
H        5.38907000       3.41226000       1.21871000
H        6.37632000       4.25594000       2.41104000
H        6.47450000       2.53591000       2.29208000
C        3.83650000       6.79327000       4.97508000
O        4.72172000       6.29545000       3.92379000
H        3.46990000       7.80239000       4.74300000
H        2.93929000       6.16724000       5.07092000
H        4.33890000       6.82765000       5.94952000
H        4.35209000       6.18769000       3.03861000
21
Properties=species:S:1:pos:R:3 energy=-103.33604816124866 pbc="F F F"
N        3.64063000       3.06419000       5.95560000
C        3.78928000       3.00378000       7.27042000
C        5.04417000       3.05539000       7.92496000
C        6.20849000       3.18727000       7.12513000
C        6.04839000       3.25475000       5.71807000
C        4.73655000       3.18239000       5.20558000
H        2.86541000       2.90709000       7.84348000
H        5.11309000       2.99809000       9.00098000
H        7.18806000       3.23356000       7.57526000
H        6.89999000       3.35395000       5.06155000
S        4.34657000       3.22743000       3.53523000
C        5.75496000       3.38423000       2.25922000
H        5.38036000       3.43722000       1.22907000
H        6.37958000       4.26947000       2.41962000
H        6.46189000       2.54892000       2.29634000
C        3.83352000       6.80504000       4.97084000
O        4.73297000       6.31739000       3.92689000
H        3.46618000       7.81444000       4.74116000
H        2.93742000       6.17531000       5.05172000
H        4.32414000       6.83453000       5.95142000
H        4.37460000       6.21501000       3.03643000
21
Properties=species:S:1:pos:R:3 energy=-103.33722332846436 pbc="F F F"
N        3.64176000       3.09415000       5.96866000
C        3.79424000       3.03266000       7.28299000
C        5.05131000       3.07974000       7.93369000
C        6.21357000       3.20842000       7.13035000
C        6.04941000       3.27663000       5.72380000
C        4.73577000       3.20865000       5.21528000
H        2.87181000       2.93871000       7.85882000
H        5.12333000       3.02159000       9.00945000
H        7.19465000       3.25152000       7.57750000
H        6.89932000       3.37304000       5.06469000
S        4.34098000       3.25416000       3.54613000
C        5.74703000       3.39933000       2.26615000
H        5.37002000       3.45415000       1.23697000
H        6.37848000       4.28015000       2.42427000
H        6.44806000       2.55903000       2.30187000
C        3.83304000       6.81306000       4.97358000
O        4.76087000       6.34423000       3.94597000
H        3.46094000       7.82097000       4.74503000
H        2.94168000       6.17382000       5.02806000
H        4.30093000       6.83796000       5.96534000
H        4.42392000       6.24671000       3.04662000
21
Properties=species:S:1:pos:R:3 energy=-103.33808627413198 pbc="F F F"
N        3.63926000       3.12615000       5.97486000
C        3.79589000       3.06327000       7.28861000
C        5.05521000       3.10647000       7.93521000
C        6.21506000       3.23410000       7.12823000
C        6.04646000       3.30360000       5.72226000
C        4.73108000       3.23817000       5.21793000
H        2.87508000       2.97121000       7.86733000
H        5.13064000       3.04672000       9.01062000
H        7.19767000       3.27511000       7.57215000
H        6.89439000       3.39875000       5.06042000
S        4.33125000       3.28234000       3.54994000
C        5.73840000       3.41341000       2.26969000
H        5.36191000       3.46645000       1.24020000
H        6.37532000       4.29085000       2.42455000
H        6.43431000       2.56901000       2.30874000
C        3.83600000       6.80785000       4.99523000
O        4.81018000       6.35954000       4.00192000
H        3.47151000       7.81887000       4.76840000
H        2.94506000       6.16570000       4.99832000
H        4.25890000       6.81584000       6.00733000
H        4.51519000       6.27707000       3.08660000
21
Properties=species:S:1:pos:R:3 energy=-103.33593107816812 pbc="F F F"
N        3.63234000       3.14075000       5.95894000
C        3.78984000       3.07333000       7.27232000
C        5.04981000       3.11150000       7.91796000
C        6.20894000       3.24457000       7.11084000
C        6.03932000       3.31977000       5.70526000
C        4.72376000       3.25340000       5.20162000
H        2.86914000       2.97998000       7.85095000
H        5.12606000       3.04354000       8.99271000
H        7.19192000       3.28311000       7.55395000
H        6.88662000       3.41803000       5.04299000
S        4.32330000       3.29195000       3.53337000
C        5.73868000       3.40143000       2.26038000
H        5.36884000       3.44156000       1.22781000
H        6.37778000       4.27846000       2.40735000
H        6.43160000       2.55513000       2.31489000
C        3.83911000       6.78052000       5.04119000
O        4.85862000       6.33451000       4.09338000
H        3.50360000       7.80127000       4.81395000
H        2.93925000       6.15337000       4.98471000
H        4.20643000       6.76389000       6.07481000
H        4.61089000       6.26442000       3.16361000
21
Properties=species:S:1:pos:R:3 energy=-103.31777886427534 pbc="F F F"
N        3.62313000       3.16168000       5.92426000
C        3.77804000       3.07456000       7.23701000
C        5.03767000       3.08841000       7.88430000
C        6.19812000       3.24180000       7.08276000
C        6.03111000       3.34718000       5.67866000
C        4.71703000       3.27838000       5.17101000
H        2.85564000       2.97968000       7.81250000
H        5.11264000       2.98477000       8.95610000
H        7.18057000       3.26566000       7.52792000
H        6.87961000       3.46281000       5.02054000
S        4.32090000       3.30416000       3.50011000
C        5.74833000       3.36621000       2.23827000
H        5.38839000       3.38835000       1.20149000
H        6.39829000       4.23730000       2.37209000
H        6.42923000       2.51156000       2.31661000
C        3.83482000       6.74495000       5.09542000
O        4.88253000       6.25611000       4.20100000
H        3.55708000       7.77848000       4.84931000
H        2.91185000       6.15832000       4.99288000
H        4.14658000       6.71567000       6.14680000
H        4.67131000       6.19649000       3.26204000
21
Properties=species:S:1:pos:R:3 energy=-103.24307985889617 pbc="F F F"
N        3.61454000       3.22027000       5.89644000
C        3.76888000       3.08607000       7.20908000
C        5.03042000       3.03738000       7.85173000
C        6.19328000       3.23544000       7.06384000
C        6.03150000       3.42231000       5.66652000
C        4.71756000       3.34668000       5.14995000
H        2.84592000       2.99432000       7.78348000
H        5.10543000       2.85009000       8.91204000
H        7.17510000       3.21648000       7.51042000
H        6.88273000       3.58192000       5.02060000
S        4.32791000       3.34119000       3.46946000
C        5.76132000       3.33395000       2.21697000
H        5.40795000       3.33767000       1.17715000
H        6.43021000       4.19433000       2.33289000
H        6.42234000       2.46587000       2.31995000
C        3.82009000       6.71730000       5.11988000
O        4.86061000       6.14157000       4.26967000
H        3.61425000       7.75597000       4.82969000
H        2.86501000       6.18567000       5.00946000
H        4.10068000       6.70328000       6.17988000
H        4.65901000       6.11073000       3.32738000
21
Properties=species:S:1:pos:R:3 energy=-103.04500130509902 pbc="F F F"
N        3.60533000       3.31544000       5.89623000
C        3.76657000       3.12174000       7.20765000
C        5.03213000       2.98658000       7.83206000
C        6.19658000       3.23267000       7.06123000
C        6.03686000       3.53169000       5.68173000
C        4.72074000       3.44410000       5.15823000
H        2.84653000       3.03442000       7.78659000
H        5.10909000       2.69262000       8.86742000
H        7.17906000       3.14372000       7.49691000
H        6.88911000       3.73919000       5.05029000
S        4.34197000       3.35957000       3.46144000
C        5.77072000       3.31787000       2.20991000
H        5.41492000       3.31126000       1.16989000
H        6.44977000       4.17378000       2.31233000
H        6.42097000       2.44182000       2.32025000
C        3.80911000       6.69161000       5.11763000
O        4.82863000       6.04131000       4.29559000
H        3.66170000       7.72472000       4.77938000
H        2.82846000       6.20539000       5.02081000
H        4.08109000       6.70538000       6.17961000
H        4.61580000       6.02518000       3.35383000
21
Properties=species:S:1:pos:R:3 energy=-102.73088040926393 pbc="F F F"
N        3.58797000       3.43758000       5.90986000
C        3.76189000       3.16842000       7.21681000
C        5.03428000       2.94816000       7.81103000
C        6.20075000       3.22862000       7.05832000
C        6.04283000       3.64059000       5.70717000
C        4.71904000       3.55403000       5.18766000
H        2.84602000       3.06520000       7.79984000
H        5.11246000       2.56052000       8.81414000
H        7.18275000       3.06506000       7.46963000
H        6.89592000       3.87476000       5.08541000
S        4.35620000       3.36257000       3.45465000
C        5.78147000       3.30922000       2.20735000
H        5.42095000       3.30136000       1.16730000
H        6.46192000       4.16701000       2.30209000
H        6.42864000       2.43016000       2.30884000
C        3.80399000       6.65848000       5.11583000
O        4.79740000       5.93642000       4.31985000
H        3.71278000       7.67906000       4.72756000
H        2.80133000       6.21629000       5.03549000
H        4.06991000       6.70542000       6.17817000
H        4.57861000       5.92247000       3.36537000
21
Properties=species:S:1:pos:R:3 energy=-102.1292034676432 pbc="F F F"
N        3.56756000       3.59918000       5.94742000
C        3.75540000       3.21064000       7.22560000
C        5.03002000       2.91784000       7.77857000
C        6.19742000       3.21900000       7.03324000
C        6.04859000       3.74538000       5.72639000
C        4.70776000       3.70301000       5.20637000
H        2.84443000       3.07082000       7.80819000
H        5.11028000       2.46757000       8.75451000
H        7.17763000       2.99715000       7.42112000
H        6.90861000       3.97957000       5.11806000
S        4.38193000       3.30413000       3.47138000
C        5.79406000       3.29726000       2.20773000
H        5.42408000       3.29602000       1.17203000
H        6.46015000       4.16590000       2.30288000
H        6.45530000       2.42721000       2.27983000
C        3.80130000       6.62235000       5.11839000
O        4.77614000       5.81952000       4.35769000
H        3.76526000       7.62357000       4.68065000
H        2.78100000       6.22206000       5.05366000
H        4.05323000       6.70795000       6.18099000
H        4.55350000       5.83333000       3.38954000
21
Properties=species:S:1:pos:R:3 energy=-101.8047272237966 pbc="F F F"
N        3.56737000       3.75199000       5.99940000
C        3.75663000       3.23203000       7.22118000
C        5.02489000       2.89753000       7.75416000
C        6.19224000       3.20187000       6.99517000
C        6.04960000       3.80857000       5.73812000
C        4.68754000       3.97038000       5.18231000
H        2.84561000       3.06379000       7.80095000
H        5.10506000       2.42361000       8.71854000
H        7.17233000       2.95626000       7.38229000
H        6.92285000       4.03124000       5.15223000
S        4.39592000       3.23109000       3.47322000
C        5.80381000       3.29275000       2.20535000
H        5.43710000       3.29812000       1.17136000
H        6.45838000       4.16551000       2.30360000
H        6.47504000       2.43052000       2.25031000
C        3.78553000       6.59819000       5.13648000
O        4.77523000       5.61846000       4.42971000
H        3.80454000       7.57316000       4.65125000
H        2.76345000       6.22605000       5.07527000
H        4.03203000       6.71921000       6.18915000
H        4.53722000       5.73976000       3.40044000
21
Properties=species:S:1:pos:R:3 energy=-101.26977029243733 pbc="F F F"
N        3.62061000       3.89655000       6.05565000
C        3.77556000       3.27282000       7.22894000
C        5.02347000       2.85491000       7.74779000
C        6.20811000       3.15364000       7.00883000
C        6.09800000       3.83655000       5.79253000
C        4.74585000       4.11741000       5.24057000
H        2.85030000       3.08456000       7.78017000
H        5.07629000       2.32295000       8.68302000
H        7.17510000       2.84187000       7.38529000
H        6.98560000       4.05079000       5.22709000
S        4.34543000       3.24676000       3.46793000
C        5.80771000       3.32745000       2.19156000
H        5.48138000       3.34511000       1.15265000
H        6.46835000       4.18477000       2.31236000
H        6.45234000       2.45237000       2.25480000
C        3.77180000       6.60131000       5.13178000
O        4.75525000       5.60048000       4.45696000
H        3.78484000       7.54561000       4.59304000
H        2.75288000       6.21846000       5.09601000
H        4.02196000       6.78305000       6.17583000
H        4.39115000       5.49704000       3.23435000
21
Properties=species:S:1:pos:R:3 energy=-100.68517447134305 pbc="F F F"
N        3.64729000       3.96032000       6.08673000
C        3.78346000       3.28653000       7.23137000
C        5.02360000       2.84974000       7.75353000
C        6.22011000       3.13865000       7.02751000
C        6.12927000       3.85117000       5.83173000
C        4.78946000       4.25029000       5.32648000
H        2.85032000       3.07526000       7.76257000
H        5.06400000       2.30225000       8.67963000
H        7.18025000       2.80022000       7.39663000
H        7.01430000       4.04803000       5.25723000
S        4.25398000       3.36023000       3.36462000
C        5.80570000       3.35540000       2.16125000
H        5.53070000       3.35602000       1.10922000
H        6.48392000       4.19371000       2.29603000
H        6.41686000       2.46488000       2.28013000
C        3.77629000       6.58582000       5.14290000
O        4.75092000       5.58175000       4.53199000
H        3.79601000       7.51938000       4.58102000
H        2.75487000       6.20474000       5.10090000
H        4.00258000       6.80194000       6.18841000
H        4.32035000       5.24613000       3.10303000
21
Properties=species:S:1:pos:R:3 energy=-100.82380083869245 pbc="F F F"
N        3.64662000       3.97691000       6.09978000
C        3.78202000       3.28634000       7.23249000
C        5.02313000       2.85024000       7.75507000
C        6.22403000       3.13331000       7.03123000
C        6.14104000       3.85162000       5.84376000
C        4.80574000       4.32827000       5.39345000
H        2.84862000       3.06941000       7.76113000
H        5.06292000       2.30187000       8.67994000
H        7.18275000       2.79281000       7.39807000
H        7.01839000       4.04591000       5.25877000
S        4.19653000       3.46598000       3.28424000
C        5.81509000       3.36389000       2.14451000
H        5.55306000       3.35820000       1.09207000
H        6.49626000       4.19423000       2.28514000
H        6.40705000       2.46839000       2.28765000
C        3.78566000       6.57717000       5.15402000
O        4.79148000       5.60752000       4.66222000
H        3.80736000       7.51209000       4.58214000
H        2.76163000       6.19119000       5.10148000
H        3.98351000       6.81518000       6.20364000
H        4.26168000       5.04056000       2.96210000
21
Properties=species:S:1:pos:R:3 energy=-101.38049185892673 pbc="F F F"
N        3.65386000       4.01208000       6.14447000
C        3.78476000       3.28397000       7.25385000
C        5.02711000       2.84107000       7.76537000
C        6.22777000       3.12273000       7.04268000
C        6.14485000       3.86638000       5.86788000
C        4.81755000       4.39219000       5.49257000
H        2.84934000       3.04994000       7.76918000
H        5.06588000       2.28236000       8.68365000
H        7.18437000       2.76694000       7.39731000
H        7.01483000       4.05512000       5.26708000
S        4.16846000       3.56093000       3.17792000
C        5.80951000       3.38142000       2.12707000
H        5.59380000       3.36214000       1.06108000
H        6.51072000       4.19707000       2.27410000
H        6.37770000       2.47568000       2.31046000
C        3.79335000       6.58007000       5.16019000
O        4.81659000       5.60737000       4.70224000
H        3.82265000       7.50647000       4.57738000
H        2.77495000       6.18074000       5.09378000
H        3.96046000       6.83408000       6.21256000
H        4.19628000       4.86596000       2.82884000
21
Properties=species:S:1:pos:R:3 energy=-102.07145982688917 pbc="F F F"
N        3.66392000       4.06391000       6.23454000
C        3.79053000       3.26094000       7.30084000
C        5.03929000       2.79848000       7.77697000
C        6.21063000       3.10736000       7.03376000
C        6.08505000       3.91934000       5.89141000
C        4.79215000       4.42157000       5.61763000
H        2.85716000       3.01452000       7.80659000
H        5.09224000       2.22030000       8.68374000
H        7.17604000       2.75230000       7.35793000
H        6.95068000       4.15697000       5.28769000
S        4.21993000       3.65272000       3.16365000
C        5.80828000       3.39841000       2.13824000
H        5.59731000       3.37107000       1.06163000
H        6.53418000       4.20588000       2.27232000
H        6.34775000       2.47259000       2.34092000
C        3.81958000       6.55536000       5.12025000
O        4.80762000       5.49632000       4.66265000
H        3.86990000       7.47067000       4.52900000
H        2.79197000       6.18430000       5.06639000
H        3.98858000       6.82374000       6.16933000
H        4.15151000       4.87193000       2.68989000
21
Properties=species:S:1:pos:R:3 energy=-102.36283625022841 pbc="F F F"
N        3.64662000       4.08521000       6.35963000
C        3.79955000       3.23791000       7.38734000
C        5.05716000       2.74073000       7.79645000
C        6.20883000       3.09049000       7.04109000
C        6.05036000       3.95361000       5.94225000
C        4.74708000       4.43431000       5.70918000
H        2.88023000       2.96768000       7.90527000
H        5.13545000       2.10874000       8.66626000
H        7.18237000       2.72122000       7.31427000
H        6.89203000       4.24609000       5.33024000
S        4.18600000       3.73686000       3.09575000
C        5.81644000       3.42108000       2.13401000
H        5.64562000       3.36526000       1.05365000
H        6.55654000       4.21203000       2.27240000
H        6.31942000       2.48809000       2.38749000
C        3.83036000       6.55036000       5.05871000
O        4.77874000       5.43917000       4.65897000
H        3.92354000       7.43072000       4.42351000
H        2.79199000       6.21152000       5.01592000
H        4.01121000       6.85413000       6.09511000
H        4.13952000       4.91891000       2.54622000
21
Properties=species:S:1:pos:R:3 energy=-102.50979719834753 pbc="F F F"
N        3.63791000       4.10530000       6.46683000
C        3.82172000       3.22959000       7.46794000
C        5.08176000       2.69098000       7.81109000
C        6.21265000       3.06706000       7.03826000
C        6.01977000       3.96837000       5.97528000
C        4.71206000       4.44069000       5.78676000
H        2.92208000       2.95394000       8.01784000
H        5.18075000       2.00806000       8.64138000
H        7.19210000       2.68016000       7.26158000
H        6.83869000       4.29199000       5.35041000
S        4.15351000       3.85543000       3.01371000
C        5.82814000       3.44826000       2.15265000
H        5.71278000       3.32393000       1.07203000
H        6.57847000       4.23015000       2.28067000
H        6.29360000       2.52577000       2.49804000
C        3.81872000       6.55221000       4.99942000
O        4.75209000       5.40141000       4.68902000
H        3.93794000       7.37393000       4.29196000
H        2.77471000       6.23143000       4.97326000
H        4.00404000       6.93437000       6.00706000
H        4.16713000       5.00027000       2.38211000
21
Properties=species:S:1:pos:R:3 energy=-102.56819130066005 pbc="F F F"
N        3.65344000       4.17787000       6.54518000
C        3.85052000       3.28425000       7.52840000
C        5.10524000       2.70447000       7.81940000
C        6.22046000       3.07222000       7.02070000
C        6.01152000       3.99493000       5.98010000
C        4.70978000       4.49129000       5.83628000
H        2.96467000       3.02084000       8.10636000
H        5.21299000       1.99613000       8.62790000
H        7.19745000       2.65850000       7.20351000
H        6.81493000       4.31352000       5.33403000
S        4.15492000       4.00042000       2.96140000
C        5.85241000       3.48480000       2.20276000
H        5.77417000       3.25064000       1.13783000
H        6.60987000       4.26630000       2.27869000
H        6.29160000       2.60090000       2.66371000
C        3.79669000       6.58532000       4.96675000
O        4.74921000       5.43412000       4.72055000
H        3.89849000       7.35668000       4.20138000
H        2.75815000       6.24671000       4.97169000
H        3.98534000       7.03984000       5.94248000
H        4.20454000       5.06603000       2.20226000
21
Properties=species:S:1:pos:R:3 energy=-102.59587928100059 pbc="F F F"
N        3.67360000       4.26373000       6.59255000
C        3.87315000       3.35887000       7.56488000
C        5.11983000       2.74663000       7.82140000
C        6.22481000       3.09703000       7.00110000
C        6.01222000       4.03314000       5.97384000
C        4.71914000       4.55750000       5.86206000
H        2.99587000       3.11194000       8.16286000
H        5.22964000       2.02707000       8.61989000
H        7.19601000       2.65909000       7.15659000
H        6.80701000       4.33923000       5.31154000
S        4.17368000       4.11073000       2.94838000
C        5.87907000       3.53153000       2.25308000
H        5.81363000       3.20416000       1.21259000
H        6.63488000       4.31810000       2.26855000
H        6.31497000       2.69566000       2.79909000
C        3.78598000       6.63908000       4.96070000
O        4.75723000       5.49731000       4.74283000
H        3.86384000       7.38141000       4.16418000
H        2.75422000       6.28187000       4.99328000
H        3.97946000       7.13522000       5.91467000
H        4.22349000       5.09431000       2.08388000
21
Properties=species:S:1:pos:R:3 energy=-102.6102674906748 pbc="F F F"
N        3.68962000       4.33557000       6.62317000
C        3.88786000       3.42172000       7.58729000
C        5.12712000       2.78594000       7.82133000
C        6.22595000       3.12314000       6.98735000
C        6.01447000       4.07013000       5.97004000
C        4.72896000       4.61625000       5.87949000
H        3.01585000       3.18752000       8.19793000
H        5.23625000       2.05922000       8.61340000
H        7.19157000       2.66725000       7.12499000
H        6.80467000       4.36737000       5.29829000
S        4.19048000       4.19096000       2.95436000
C        5.89906000       3.58286000       2.29095000
H        5.83605000       3.19304000       1.27238000
H        6.64856000       4.37499000       2.25817000
H        6.34286000       2.78705000       2.88825000
C        3.78359000       6.69281000       4.96941000
O        4.76715000       5.55916000       4.76260000
H        3.84703000       7.42237000       4.15977000
H        2.75664000       6.32355000       5.01556000
H        3.97787000       7.20794000       5.91301000
H        4.22612000       5.11163000       2.02158000
21
Properties=species:S:1:pos:R:3 energy=-102.61869313606269 pbc="F F F"
N        3.70233000       4.39538000       6.64691000
C        3.89815000       3.47374000       7.60406000
C        5.13113000       2.82031000       7.82207000
C        6.22607000       3.14845000       6.97940000
C        6.01711000       4.10472000       5.97032000
C        4.73778000       4.66733000       5.89476000
H        3.02951000       3.24832000       8.22272000
H        5.23858000       2.08761000       8.60880000
H        7.18693000       2.67909000       7.10443000
H        6.80469000       4.39621000       5.29296000
S        4.20154000       4.25759000       2.96624000
C        5.91056000       3.63326000       2.31858000
H        5.84630000       3.20378000       1.31640000
H        6.65476000       4.42834000       2.25151000
H        6.36257000       2.86573000       2.94604000
C        3.78335000       6.74113000       4.98339000
O        4.77689000       5.61493000       4.78190000
H        3.84085000       7.46734000       4.17020000
H        2.75981000       6.36305000       5.03102000
H        3.97282000       7.26295000       5.92429000
H        4.22297000       5.13368000       1.99063000
21
Properties=species:S:1:pos:R:3 energy=-102.62454729008928 pbc="F F F"
N        3.71362000       4.44909000       6.66855000
C        3.90701000       3.52086000       7.61978000
C        5.13440000       2.85284000       7.82466000
C        6.22617000       3.17357000       6.97504000
C        6.01978000       4.13759000       5.97284000
C        4.74589000       4.71389000       5.90954000
H        3.04105000       3.30239000       8.24466000
H        5.24009000       2.11506000       8.60684000
H        7.18281000       2.69314000       7.08988000
H        6.80535000       4.42451000       5.29119000
S        4.20940000       4.31787000       2.97906000
C        5.91743000       3.68141000       2.34029000
H        5.85067000       3.22473000       1.35053000
H        6.65807000       4.47738000       2.24796000
H        6.37579000       2.93415000       2.98731000
C        3.78335000       6.78500000       4.99822000
O        4.78592000       5.66595000       4.80062000
H        3.83898000       7.51173000       4.18531000
H        2.76267000       6.39905000       5.04142000
H        3.96489000       7.30842000       5.93981000
H        4.21890000       5.16027000       1.97382000
21
Properties=species:S:1:pos:R:3 energy=-102.62931300510796 pbc="F F F"
N        3.72485000       4.50170000       6.69049000
C        3.91590000       3.56782000       7.63661000
C        5.13774000       2.88613000       7.82926000
C        6.22626000       3.19928000       6.97267000
C        6.02235000       4.16999000       5.97643000
C        4.75387000       4.75923000       5.92463000
H        3.05263000       3.35617000       8.26754000
H        5.24173000       2.14403000       8.60754000
H        7.17871000       2.70850000       7.07807000
H        6.80588000       4.45215000       5.29045000
S        4.21717000       4.37611000       2.99145000
C        5.92391000       3.72967000       2.35907000
H        5.85448000       3.25119000       1.37996000
H        6.66152000       4.52581000       2.24558000
H        6.38785000       2.99925000       3.02113000
C        3.78364000       6.82722000       5.01287000
O        4.79474000       5.71501000       4.81907000
H        3.83872000       7.55538000       4.20117000
H        2.76563000       6.43389000       5.04996000
H        3.95639000       7.35087000       5.95600000
H        4.21527000       5.18879000       1.96187000
21
Properties=species:S:1:pos:R:3 energy=-102.63340224010577 pbc="F F F"
N        3.73656000       4.55644000       6.71356000
C        3.92529000       3.61754000       7.65510000
C        5.14119000       2.92200000       7.83540000
C        6.22602000       3.22669000       6.97111000
C        6.02460000       4.20350000       5.98034000
C        4.76191000       4.80594000       5.94022000
H        3.06509000       3.41342000       8.29266000
H        5.24353000       2.17613000       8.61027000
H        7.17400000       2.72542000       7.06697000
H        6.80583000       4.48036000       5.28961000
S        4.22658000       4.43564000       3.00304000
C        5.93264000       3.78146000       2.37666000
H        5.86109000       3.28228000       1.40820000
H        6.66638000       4.57810000       2.24273000
H        6.40285000       3.06799000       3.05259000
C        3.78439000       6.87062000       5.02755000
O        4.80351000       5.76491000       4.83761000
H        3.83927000       7.60022000       4.21709000
H        2.76888000       6.47056000       5.05857000
H        3.94862000       7.39435000       5.97218000
H        4.21192000       5.21787000       1.95011000
21
Properties=species:S:1:pos:R:3 energy=-102.63732235509838 pbc="F F F"
N        3.74932000       4.61741000       6.73921000
C        3.93572000       3.67380000       7.67639000
C        5.14488000       2.96335000       7.84330000
C        6.22520000       3.25821000       6.97000000
C        6.02634000       4.24100000       5.98464000
C        4.77021000       4.85770000       5.95726000
H        3.07927000       3.47839000       8.32168000
H        5.24561000       2.21402000       8.61501000
H        7.16810000       2.74562000       7.05550000
H        6.80477000       4.51172000       5.28835000
S        4.23868000       4.50075000       3.01436000
C        5.94527000       3.84167000       2.39445000
H        5.87247000       3.31971000       1.43830000
H        6.67283000       4.63992000       2.23767000
H        6.42410000       3.14841000       3.08512000
C        3.78588000       6.91917000       5.04349000
O        4.81239000       5.81949000       4.85729000
H        3.84039000       7.64991000       4.23401000
H        2.77272000       6.51275000       5.06902000
H        3.94215000       7.44315000       5.98934000
H        4.20737000       5.24705000       1.93589000
21
Properties=species:S:1:pos:R:3 energy=-102.64079148341045 pbc="F F F"
N        3.76378000       4.68992000       6.76959000
C        3.94780000       3.74140000       7.70214000
C        5.14900000       3.01420000       7.85368000
C        6.22359000       3.29757000       6.96959000
C        6.02737000       4.28663000       5.98998000
C        4.77904000       4.91939000       5.97729000
H        3.09601000       3.55582000       8.35645000
H        5.24809000       2.26118000       8.62201000
H        7.16046000       2.77221000       7.04315000
H        6.80221000       4.55008000       5.28697000
S        4.25489000       4.57639000       3.02650000
C        5.96343000       3.91629000       2.41298000
H        5.89017000       3.36740000       1.47220000
H        6.68106000       4.71773000       2.22834000
H        6.45490000       3.24887000       3.11995000
C        3.78731000       6.97702000       5.06201000
O        4.82145000       5.88364000       4.87969000
H        3.84059000       7.70809000       4.25274000
H        2.77661000       6.56425000       5.08348000
H        3.93653000       7.50212000       6.00837000
H        4.19935000       5.27537000       1.91760000
