! RI-MP2 6-311G(d) autoaux nofrozencore tightscf engrad 
%pal nprocs 1 end 
*xyz -1 1 
C   0.0945436110706428 -0.04868643454782148 0.062324560808428256
C   1.5932725333592876 0.13788026355780547 0.040059822055519854
H   2.074400114208224 -0.7610716980877281 0.42288701789919536
F   -0.5328090674088087 1.2169918482976854 -0.011362311435465683
Cl   0.8363546878612698 -3.2723928312841957 -0.41126128654730454
H   -0.25606806732247367 -0.6487624427236409 -0.7722318650849049
H   -0.2365880167115565 -0.5227940258919963 0.9858788106738682
H   1.8561731031582416 1.0021232964581381 0.656860370609409
H   1.9566126117851739 0.3059776142217539 -0.9757426689787456
*
