! RI-MP2 6-311G(d) autoaux nofrozencore tightscf engrad 
%pal nprocs 1 end 
*xyz -1 1 
C   0.35177408112020103 -0.8094027109098625 -0.03971151317663561
C   1.6503285558713552 -0.05175287311186916 0.021763094001467784
H   2.3465283076318717 -0.4906995564124823 0.7428275735109758
F   -0.5545357458657443 1.5777720225092469 0.2382457732971397
Cl   0.6306208448467008 -2.5888108328901023 -0.4249282061588202
H   -0.3000876382386315 -0.3888730817447657 -0.7924828756695989
H   -0.17694880669056956 -0.7681784952789488 0.9042337865968053
H   1.3034431499149448 0.9487129447194229 0.30565825226630344
H   2.1347687614098696 -0.019501826880638506 -0.9581934346676377
*
