10
Properties=species:S:1:pos:R:3:mp2_forces:R:3:forces:R:3 R1=H R2=CN R3=H R4=H lg=F nu=Cl rxn-id=320 mp2_energy=-19877.988132296552 energy=-19877.988125239935 free_energy=-19877.988125239935 pbc="F F F"
C        0.77658372      -0.04800393       0.03496330      -0.04449715      -0.00434376      -0.01173595      -0.04451721      -0.00434508      -0.01173462
C        1.22499486       1.38087048      -0.16748900      -0.01942238      -0.05445787       0.01886565      -0.01942013      -0.05445128       0.01885881
H        2.30369405       1.38328458      -0.32057979      -0.00352941      -0.00643783       0.05853352      -0.00354003      -0.00643878       0.05853556
F       -0.63018402      -0.09157815       0.01707304      -0.06146406      -0.03235826      -0.02340575      -0.06146021      -0.03233660      -0.02340728
Cl       3.80906735      -0.64805247      -1.15157478       0.00519058      -0.02001396      -0.06547189       0.00518962      -0.02001392      -0.06547121
H        1.15335698      -0.68901387      -0.76136092       0.04290666       0.04818998       0.00723824       0.04292485       0.04817790       0.00721972
H        0.93502339       1.99950981       0.68505521       0.00368964       0.00466448      -0.02413230       0.00368890       0.00466202      -0.02413502
H        0.73882278       1.75701003      -1.07104375       0.03620711       0.00747357       0.02323210       0.03620772       0.00747631       0.02323325
C        1.19032120      -0.61571107       1.32843547       0.07803133       0.00759539      -0.00312558       0.07806322       0.00757278      -0.00304613
N        1.45168960      -1.07349695       2.37652085      -0.03711233       0.04968825       0.02000198      -0.03713673       0.04969665       0.01994691
10
Properties=species:S:1:pos:R:3:mp2_forces:R:3:forces:R:3 R1=H R2=CN R3=H R4=H lg=F nu=Cl rxn-id=320 mp2_energy=-19877.988132296552 energy=-19878.01011738712 free_energy=-19877.988125239935 pbc="F F F"
C        0.78953527      -0.05861747       0.04500675      -0.04449715      -0.00434376      -0.01173595       0.00557032      -0.00284691       0.00415538
C        1.22666013       1.37529583      -0.13383340      -0.01942238      -0.05445787       0.01886565       0.00269293      -0.00168462       0.00514522
H        2.31486456       1.39578238      -0.16410522      -0.00352941      -0.00643783       0.05853352       0.00288174       0.00068376       0.00734463
F       -0.61077850      -0.13847437      -0.04299830      -0.06146406      -0.03235826      -0.02340575       0.00773386      -0.00988275      -0.01731747
Cl       3.73147274      -0.67294720      -1.37641825       0.00519058      -0.02001396      -0.06547189      -0.00990925       0.00538383      -0.04797741
H        1.23192984      -0.68256161      -0.73088560       0.04290666       0.04818998       0.00723824       0.02165415      -0.00232643       0.01248464
H        0.83627444       2.00299262       0.67010875       0.00368964       0.00466448      -0.02413230      -0.00029886      -0.00090762       0.00334060
H        0.85168539       1.73302566      -1.09425569       0.03620711       0.00747357       0.02323210       0.00516752      -0.00388308       0.00325028
C        1.16615342      -0.59507792       1.36330621       0.07803133       0.00759539      -0.00312558      -0.01234292       0.00472332       0.01236237
N        1.41557262      -1.00459947       2.43407438      -0.03711233       0.04968825       0.02000198      -0.02314949       0.01074049       0.01721177
10
Properties=species:S:1:pos:R:3:mp2_forces:R:3:forces:R:3 R1=H R2=CN R3=H R4=H lg=F nu=Cl rxn-id=320 mp2_energy=-19877.988132296552 energy=-19878.006192298642 free_energy=-19877.988125239935 pbc="F F F"
C        0.78845705      -0.05522500       0.04663639      -0.04449715      -0.00434376      -0.01173595       0.00645633      -0.00365866       0.00407396
C        1.22503723       1.37883923      -0.13194310      -0.01942238      -0.05445787       0.01886565       0.00267608      -0.00241711       0.00555774
H        2.31179878       1.41629177      -0.08568597      -0.00352941      -0.00643783       0.05853352       0.00458700      -0.00473352      -0.01075374
F       -0.61317666      -0.12997699      -0.02377716      -0.06146406      -0.03235826      -0.02340575       0.00883227      -0.01335818      -0.02516205
Cl       3.69694234      -0.69110218      -1.38281705       0.00519058      -0.02001396      -0.06547189      -0.00219432       0.00789146      -0.05269232
H        1.21891952      -0.67830998      -0.73622675       0.04290666       0.04818998       0.00723824       0.02874776      -0.00279436       0.01482188
H        0.76980365       2.01386776       0.63139290       0.00368964       0.00466448      -0.02413230       0.01472096      -0.00341525       0.01490970
H        0.91833868       1.71602536      -1.12320227       0.03620711       0.00747357       0.02323210      -0.01192322       0.00047980       0.00994383
C        1.18363716      -0.59853335       1.35668137       0.07803133       0.00759539      -0.00312558      -0.01792879       0.00667210       0.01554390
N        1.45361215      -1.01705816       2.41894126      -0.03711233       0.04968825       0.02000198      -0.03397408       0.01533372       0.02375711
10
Properties=species:S:1:pos:R:3:mp2_forces:R:3:forces:R:3 R1=H R2=CN R3=H R4=H lg=F nu=Cl rxn-id=320 mp2_energy=-19877.988132296552 energy=-19877.99473261065 free_energy=-19877.988125239935 pbc="F F F"
C        0.78381622      -0.05205469       0.04803201      -0.04449715      -0.00434376      -0.01173595       0.00684913      -0.00404845       0.00377440
C        1.22515531       1.38066005      -0.13411283      -0.01942238      -0.05445787       0.01886565       0.00203604      -0.00284588       0.00657680
H        2.30574612       1.43298966      -0.01876429      -0.00352941      -0.00643783       0.05853352       0.00708815      -0.01088819      -0.02623718
F       -0.61990552      -0.11531990       0.00591839      -0.06146406      -0.03235826      -0.02340575       0.00873077      -0.01675664      -0.03461127
Cl       3.67093749      -0.69553231      -1.36911873       0.00519058      -0.02001396      -0.06547189       0.00594698       0.00784207      -0.05899354
H        1.19175285      -0.67729396      -0.74449357       0.04290666       0.04818998       0.00723824       0.03698975      -0.00289212       0.01685958
H        0.71505120       2.02354634       0.58703024       0.00368964       0.00466448      -0.02413230       0.02692317      -0.00543297       0.02773231
H        0.98288702       1.69800240      -1.14917714       0.03620711       0.00747357       0.02323210      -0.02838701       0.00532925       0.01530975
C        1.20323041      -0.60499473       1.34641934       0.07803133       0.00759539      -0.00312558      -0.02369696       0.00923776       0.01910725
N        1.49469880      -1.03518439       2.39826620      -0.03711233       0.04968825       0.02000198      -0.04248002       0.02045516       0.03048190
10
Properties=species:S:1:pos:R:3:mp2_forces:R:3:forces:R:3 R1=H R2=CN R3=H R4=H lg=F nu=Cl rxn-id=320 mp2_energy=-19877.988132296552 energy=-19877.978468503512 free_energy=-19877.988125239935 pbc="F F F"
C        0.77689348      -0.04864555       0.04697300      -0.04449715      -0.00434376      -0.01173595       0.00616604      -0.00418709       0.00339195
C        1.22516719       1.38209071      -0.14053958      -0.01942238      -0.05445787       0.01886565       0.00100907      -0.00319902       0.00793140
H        2.29948507       1.44386212       0.01776973      -0.00352941      -0.00643783       0.05853352       0.00900724      -0.01654194      -0.03543760
F       -0.62878277      -0.09715317       0.04229167      -0.06146406      -0.03235826      -0.02340575       0.00709589      -0.01928147      -0.04322189
Cl       3.65991621      -0.69369558      -1.32278910       0.00519058      -0.02001396      -0.06547189       0.01341647       0.00611277      -0.06541352
H        1.15412109      -0.67660003      -0.75778076       0.04290666       0.04818998       0.00723824       0.04366535      -0.00291880       0.01817456
H        0.68250434       2.03072000       0.55122303       0.00368964       0.00466448      -0.02413230       0.03439521      -0.00643980       0.03787999
H        1.02401936       1.68599058      -1.16847101       0.03620711       0.00747357       0.02323210      -0.03962428       0.00933171       0.01892148
C        1.22496579      -0.61418055       1.33018996       0.07803133       0.00759539      -0.00312558      -0.02852168       0.01178651       0.02241178
N        1.53508013      -1.05757007       2.37113270      -0.03711233       0.04968825       0.02000198      -0.04660930       0.02533714       0.03536183
10
Properties=species:S:1:pos:R:3:mp2_forces:R:3:forces:R:3 R1=H R2=CN R3=H R4=H lg=F nu=Cl rxn-id=320 mp2_energy=-19877.988132296552 energy=-19877.960831716195 free_energy=-19877.988125239935 pbc="F F F"
C        0.77105115      -0.04518309       0.04435692      -0.04449715      -0.00434376      -0.01173595       0.00390402      -0.00382731       0.00334331
C        1.22465469       1.38416200      -0.14838280      -0.01942238      -0.05445787       0.01886565      -0.00056063      -0.00347212       0.00951479
H        2.29391025       1.45391007       0.03675025      -0.00352941      -0.00643783       0.05853352       0.01080677      -0.02332183      -0.04006671
F       -0.63553905      -0.07988747       0.07910767      -0.06146406      -0.03235826      -0.02340575       0.00344093      -0.02118419      -0.05134523
Cl       3.65443888      -0.69365728      -1.26228012       0.00519058      -0.02001396      -0.06547189       0.02152375       0.00383444      -0.07174362
H        1.11591157      -0.67471301      -0.77291931       0.04290666       0.04818998       0.00723824       0.04903632      -0.00266710       0.01940584
H        0.66135025       2.03599248       0.52358225       0.00368964       0.00466448      -0.02413230       0.03864535      -0.00541153       0.04597949
H        1.04881853       1.67903998      -1.18349441       0.03620711       0.00747357       0.02323210      -0.04697766       0.01200640       0.02065618
C        1.24751094      -0.62418789       1.31110962       0.07803133       0.00759539      -0.00312558      -0.03324227       0.01439165       0.02609534
N        1.57126270      -1.08065732       2.34216955      -0.03711233       0.04968825       0.02000198      -0.04657659       0.02965159       0.03816061
10
Properties=species:S:1:pos:R:3:mp2_forces:R:3:forces:R:3 R1=H R2=CN R3=H R4=H lg=F nu=Cl rxn-id=320 mp2_energy=-19877.988132296552 energy=-19877.9375300214 free_energy=-19877.988125239935 pbc="F F F"
C        0.76793041      -0.04207394       0.04192879      -0.04449715      -0.00434376      -0.01173595      -0.00216654      -0.00239750       0.00503204
C        1.22535407       1.38690184      -0.15659236      -0.01942238      -0.05445787       0.01886565      -0.00371346      -0.00374554       0.01206023
H        2.28571617       1.47236666       0.06730154      -0.00352941      -0.00643783       0.05853352       0.01253002      -0.03502415      -0.04305764
F       -0.63836017      -0.06236638       0.12238709      -0.06146406      -0.03235826      -0.02340575      -0.00445947      -0.02305137      -0.06305932
Cl       3.63837407      -0.69490775      -1.20281370       0.00519058      -0.02001396      -0.06547189       0.03586657       0.00123487      -0.08107100
H        1.07495013      -0.67246639      -0.78900387       0.04290666       0.04818998       0.00723824       0.05517205      -0.00190362       0.02363198
H        0.63112339       2.04065534       0.48621642       0.00368964       0.00466448      -0.02413230       0.04319141       0.00060083       0.05392969
H        1.08586526       1.66892266      -1.20065802       0.03620711       0.00747357       0.02323210      -0.05383524       0.01273889       0.02169490
C        1.27473754      -0.63612747       1.28959913       0.07803133       0.00759539      -0.00312558      -0.04181188       0.01840713       0.03248587
N        1.60767904      -1.10608610       2.31163462      -0.03711233       0.04968825       0.02000198      -0.04077346       0.03314047       0.03835324
10
Properties=species:S:1:pos:R:3:mp2_forces:R:3:forces:R:3 R1=H R2=CN R3=H R4=H lg=F nu=Cl rxn-id=320 mp2_energy=-19877.988132296552 energy=-19877.913394018626 free_energy=-19877.988125239935 pbc="F F F"
C        0.76928589      -0.04115996       0.04018410      -0.04449715      -0.00434376      -0.01173595      -0.01373952       0.00132358       0.00962920
C        1.22886701       1.38838701      -0.16362053      -0.01942238      -0.05445787       0.01886565      -0.00972774      -0.00311702       0.01570275
H        2.27722690       1.49487399       0.10269046      -0.00352941      -0.00643783       0.05853352       0.01202008      -0.05198095      -0.04168696
F       -0.63555011      -0.04819941       0.16350510      -0.06146406      -0.03235826      -0.02340575      -0.01913214      -0.02408509      -0.07698393
Cl       3.61246300      -0.69043064      -1.16218817       0.00519058      -0.02001396      -0.06547189       0.05911960      -0.00362242      -0.09288197
H        1.03980048      -0.67206356      -0.80240552       0.04290666       0.04818998       0.00723824       0.06197532       0.00009945       0.03136451
H        0.60003555       2.04120659       0.44630157       0.00368964       0.00466448      -0.02413230       0.04628159       0.01537174       0.05759540
H        1.12953183       1.65670440      -1.21569635       0.03620711       0.00747357       0.02323210      -0.05773277       0.00930896       0.02232255
C        1.30038910      -0.64793930       1.27125801       0.07803133       0.00759539      -0.00312558      -0.05460456       0.02458576       0.04134493
N        1.63132026      -1.12656065       2.28997095      -0.03711233       0.04968825       0.02000198      -0.02445987       0.03211598       0.03359352
10
Properties=species:S:1:pos:R:3:mp2_forces:R:3:forces:R:3 R1=H R2=CN R3=H R4=H lg=F nu=Cl rxn-id=320 mp2_energy=-19877.988132296552 energy=-19877.877499497972 free_energy=-19877.988125239935 pbc="F F F"
C        0.77672811      -0.04179724       0.03478584      -0.04449715      -0.00434376      -0.01173595      -0.04079617       0.01031944       0.02066046
C        1.23561432       1.38997733      -0.17449291      -0.01942238      -0.05445787       0.01886565      -0.02627922      -0.00060073       0.02319247
H        2.26886112       1.52777195       0.13290585      -0.00352941      -0.00643783       0.05853352       0.00541123      -0.08993875      -0.03276474
F       -0.62434251      -0.03096569       0.21703101      -0.06146406      -0.03235826      -0.02340575      -0.04940062      -0.02721618      -0.09369361
Cl       3.57422645      -0.68324179      -1.10005197       0.00519058      -0.02001396      -0.06547189       0.11140372      -0.01743478      -0.11491419
H        0.99499041      -0.67233760      -0.82243103       0.04290666       0.04818998       0.00723824       0.07645926       0.00939709       0.04444577
H        0.56873163       2.03300425       0.40410508       0.00368964       0.00466448      -0.02413230       0.04769937       0.05686624       0.05386325
H        1.17223938       1.64748073      -1.23199352       0.03620711       0.00747357       0.02323210      -0.05876362      -0.00274722       0.02443383
C        1.33667234      -0.66499979       1.24430616       0.07803133       0.00759539      -0.00312558      -0.07614901       0.03611052       0.05348035
N        1.64964866      -1.15007369       2.26583512      -0.03711233       0.04968825       0.02000198       0.01041505       0.02524436       0.02129640
10
Properties=species:S:1:pos:R:3:mp2_forces:R:3:forces:R:3 R1=H R2=CN R3=H R4=H lg=F nu=Cl rxn-id=320 mp2_energy=-19877.988132296552 energy=-19877.808729546065 free_energy=-19877.988125239935 pbc="F F F"
C        0.80119565      -0.04756590       0.02307626      -0.04449715      -0.00434376      -0.01173595      -0.15116322       0.03459458       0.05759179
C        1.25193557       1.39070044      -0.18896668      -0.01942238      -0.05445787       0.01886565      -0.08251394       0.00119558       0.03972411
H        2.26362393       1.58530539       0.15894613      -0.00352941      -0.00643783       0.05853352      -0.02095350      -0.19873102      -0.01127155
F       -0.59437510      -0.01294327       0.27705180      -0.06146406      -0.03235826      -0.02340575      -0.10346174      -0.02656683      -0.10874147
Cl       3.50429023      -0.67237312      -1.02999477       0.00519058      -0.02001396      -0.06547189       0.25408000      -0.05863230      -0.16259138
H        0.94547075      -0.67790497      -0.84880058       0.04290666       0.04818998       0.00723824       0.13431725       0.03750686       0.07192742
H        0.53547759       1.99925752       0.36502063       0.00368964       0.00466448      -0.02413230       0.04440300       0.18735174       0.03604516
H        1.21472679       1.64653306      -1.24832885       0.03620711       0.00747357       0.02323210      -0.05810583      -0.03812664       0.03008312
C        1.38445686      -0.68768178       1.21179588       0.07803133       0.00759539      -0.00312558      -0.09324315       0.05317112       0.05432000
N        1.64656763      -1.16850891       2.25019980      -0.03711233       0.04968825       0.02000198       0.07664115       0.00823690      -0.00708719
10
Properties=species:S:1:pos:R:3:mp2_forces:R:3:forces:R:3 R1=H R2=CN R3=H R4=H lg=F nu=Cl rxn-id=320 mp2_energy=-19877.988132296552 energy=-19877.535456935588 free_energy=-19877.988125239935 pbc="F F F"
C        0.87969831      -0.06544419      -0.00605224      -0.04449715      -0.00434376      -0.01173595      -1.24344167       0.13063231       0.36109992
C        1.29515772       1.39011905      -0.20971078      -0.01942238      -0.05445787       0.01886565      -0.26039251      -0.03737993       0.07265056
H        2.27343814       1.68990396       0.16828936      -0.00352941      -0.00643783       0.05853352      -0.09991101      -0.45648930       0.02533452
F       -0.54051489       0.00131170       0.33522324      -0.06146406      -0.03235826      -0.02340575       0.17556681       0.02899066      -0.21222148
Cl       3.37081878      -0.64041182      -0.94839941       0.00519058      -0.02001396      -0.06547189       0.75414510      -0.21372402      -0.33440860
H        0.87495832      -0.69740649      -0.88537558       0.04290666       0.04818998       0.00723824       0.45937425       0.07597774       0.11429515
H        0.51014019       1.90244264       0.34231784       0.00368964       0.00466448      -0.02413230       0.04716761       0.57585367       0.01704540
H        1.24954492       1.66451384      -1.26471249       0.03620711       0.00747357       0.02323210      -0.05206083      -0.11568378       0.03318196
C        1.43308997      -0.71593061       1.18515721       0.07803133       0.00759539      -0.00312558       0.06695231       0.02239008      -0.02371500
N        1.60703844      -1.17427963       2.25326249      -0.03711233       0.04968825       0.02000198       0.15259994      -0.01056741      -0.05326243
10
Properties=species:S:1:pos:R:3:mp2_forces:R:3:forces:R:3 R1=H R2=CN R3=H R4=H lg=F nu=Cl rxn-id=320 mp2_energy=-19877.988132296552 energy=-19877.03630347469 free_energy=-19877.988125239935 pbc="F F F"
C        1.00034040      -0.07812142      -0.04105765      -0.04449715      -0.00434376      -0.01173595      -2.84573259       0.29729551       0.81904202
C        1.32046368       1.39371242      -0.21682628      -0.01942238      -0.05445787       0.01886565      -0.24138149      -0.03553249       0.04758728
H        2.28282673       1.73429954       0.16660411      -0.00352941      -0.00643783       0.05853352      -0.08046278      -0.40235642       0.02785866
F       -0.55769724      -0.00137731       0.35638117      -0.06146406      -0.03235826      -0.02340575       1.03861024       0.05543650      -0.41627593
Cl       3.29735083      -0.61940795      -0.91608971       0.00519058      -0.02001396      -0.06547189       0.96111162      -0.27129077      -0.40476022
H        0.82998337      -0.70471637      -0.89636051       0.04290666       0.04818998       0.00723824       0.65535274      -0.05967714      -0.09975387
H        0.50505347       1.84667065       0.33971469       0.00368964       0.00466448      -0.02413230       0.06364753       0.62232148       0.02086966
H        1.25565611       1.67553853      -1.26812767       0.03620711       0.00747357       0.02323210      -0.01680742      -0.10120483       0.01420626
C        1.42687421      -0.71848858       1.18802739       0.07803133       0.00759539      -0.00312558       0.34406817      -0.06192292      -0.05647764
N        1.59251836      -1.17329105       2.25773409      -0.03711233       0.04968825       0.02000198       0.12159399      -0.04306893       0.04770378
10
Properties=species:S:1:pos:R:3:mp2_forces:R:3:forces:R:3 R1=H R2=CN R3=H R4=H lg=F nu=Cl rxn-id=320 mp2_energy=-19877.988132296552 energy=-19876.60250940067 free_energy=-19877.988125239935 pbc="F F F"
C        1.10410762      -0.08902849      -0.07067980      -0.04449715      -0.00434376      -0.01173595      -2.35615412       0.30109646       0.70328522
C        1.32925704       1.39498861      -0.21858163      -0.01942238      -0.05445787       0.01886565      -0.14713162       0.01813098       0.03285175
H        2.28563204       1.74897280       0.16585337      -0.00352941      -0.00643783       0.05853352      -0.04394383      -0.25133219       0.01476844
F       -0.59554196      -0.00336466       0.37175482      -0.06146406      -0.03235826      -0.02340575       0.92205192       0.03337756      -0.32854258
Cl       3.26223314      -0.60944716      -0.90141319       0.00519058      -0.02001396      -0.06547189       0.75224891      -0.20427159      -0.31756430
H        0.80599628      -0.70253439      -0.89267838       0.04290666       0.04818998       0.00723824       0.44857840      -0.14879361      -0.21851715
H        0.50255341       1.82403715       0.33863463       0.00368964       0.00466448      -0.02413230       0.04336766       0.44083572       0.01106010
H        1.25663269       1.67915989      -1.26871158       0.03620711       0.00747357       0.02323210       0.00544726      -0.06308562       0.00964251
C        1.41414575      -0.71576347       1.18896489       0.07803133       0.00759539      -0.00312558       0.29387175      -0.08631239       0.03313512
N        1.58835388      -1.17220181       2.25685650      -0.03711233       0.04968825       0.02000198       0.08166367      -0.03964533       0.05988090
10
Properties=species:S:1:pos:R:3:mp2_forces:R:3:forces:R:3 R1=H R2=CN R3=H R4=H lg=F nu=Cl rxn-id=320 mp2_energy=-19877.988132296552 energy=-19876.33867531469 free_energy=-19877.988125239935 pbc="F F F"
C        1.20608250      -0.10203763      -0.10114888      -0.04449715      -0.00434376      -0.01173595      -0.95357290       0.14369140       0.30026841
C        1.33562097       1.39420732      -0.22003613      -0.01942238      -0.05445787       0.01886565      -0.06756032       0.02675393       0.02068422
H        2.28738912       1.75986514       0.16553033      -0.00352941      -0.00643783       0.05853352      -0.01939978      -0.09738233       0.00792309
F       -0.63547366      -0.00476542       0.38622938      -0.06146406      -0.03235826      -0.02340575       0.37953093       0.01993940      -0.12330298
Cl       3.22956999      -0.60052472      -0.88775138       0.00519058      -0.02001396      -0.06547189       0.34600470      -0.08985135      -0.14909712
H        0.78645687      -0.69607062      -0.88316317       0.04290666       0.04818998       0.00723824       0.14596983      -0.10460347      -0.14338558
H        0.50045691       1.80499430       0.33777808       0.00368964       0.00466448      -0.02413230       0.00635279       0.19205725       0.00139732
H        1.25682758       1.68181886      -1.26921496       0.03620711       0.00747357       0.02323210       0.01377463      -0.02497709       0.00475961
C        1.40151124      -0.71216323       1.18777521       0.07803133       0.00759539      -0.00312558       0.11182312      -0.04083362       0.03799832
N        1.58492839      -1.17050554       2.25400114      -0.03711233       0.04968825       0.02000198       0.03707698      -0.02479412       0.04275471
10
Properties=species:S:1:pos:R:3:mp2_forces:R:3:forces:R:3 R1=H R2=CN R3=H R4=H lg=F nu=Cl rxn-id=320 mp2_energy=-19877.988132296552 energy=-19876.29963095439 free_energy=-19877.988125239935 pbc="F F F"
C        1.31965531      -0.11912349      -0.13694275      -0.04449715      -0.00434376      -0.01173595       0.36605102      -0.04928941      -0.11413041
C        1.34364859       1.39103432      -0.22259532      -0.01942238      -0.05445787       0.01886565       0.04199687      -0.01425014      -0.01378906
H        2.28929334       1.77149333       0.16545534      -0.00352941      -0.00643783       0.05853352       0.00440698       0.05771536       0.01269309
F       -0.68072479      -0.00701538       0.40164382      -0.06146406      -0.03235826      -0.02340575      -0.17123030      -0.01571768       0.06249361
Cl       3.18808875      -0.58961621      -0.87021518       0.00519058      -0.02001396      -0.06547189      -0.13578763       0.02355722       0.04835288
H        0.76874949      -0.68354865      -0.86593126       0.04290666       0.04818998       0.00723824      -0.06079666       0.07054360       0.08058858
H        0.49908514       1.78220590       0.33657526       0.00368964       0.00466448      -0.02413230      -0.01179954      -0.12100894      -0.01886934
H        1.25637419       1.68461916      -1.27002783       0.03620711       0.00747357       0.02323210       0.01677998       0.01093471      -0.00676208
C        1.38833244      -0.70748393       1.18352033       0.07803133       0.00759539      -0.00312558      -0.03127878       0.02279986      -0.02146252
N        1.58086747      -1.16774659       2.24851721      -0.03711233       0.04968825       0.02000198      -0.01834193       0.01471542      -0.02911475
10
Properties=species:S:1:pos:R:3:mp2_forces:R:3:forces:R:3 R1=H R2=CN R3=H R4=H lg=F nu=Cl rxn-id=320 mp2_energy=-19877.988132296552 energy=-19876.398476016755 free_energy=-19877.988125239935 pbc="F F F"
C        1.41084992      -0.12975537      -0.16476411      -0.04449715      -0.00434376      -0.01173595       0.50236534      -0.05838703      -0.15380855
C        1.35920463       1.38614318      -0.22725208      -0.01942238      -0.05445787       0.01886565       0.08549249      -0.02686907      -0.02649472
H        2.29182028       1.79200050       0.16854091      -0.00352941      -0.00643783       0.05853352       0.01036240       0.11306623       0.02419511
F       -0.73106908      -0.01413104       0.41753552      -0.06146406      -0.03235826      -0.02340575      -0.27774966      -0.03792922       0.09374120
Cl       3.15476411      -0.58817665      -0.85969248       0.00519058      -0.02001396      -0.06547189      -0.18567840       0.00930011       0.05620957
H        0.75388007      -0.65698167      -0.83881593       0.04290666       0.04818998       0.00723824      -0.08420330       0.14689322       0.15071682
H        0.49682263       1.73711106       0.33210012       0.00368964       0.00466448      -0.02413230      -0.01774774      -0.24839977      -0.03317177
H        1.26059174       1.68862469      -1.27176926       0.03620711       0.00747357       0.02323210       0.03309097       0.02112492      -0.01173986
C        1.38347998      -0.69866370       1.17461997       0.07803133       0.00759539      -0.00312558      -0.02578981       0.04725751      -0.04660826
N        1.57302562      -1.16135253       2.23949696      -0.03711233       0.04968825       0.02000198      -0.04014228       0.03394311      -0.05303954
10
Properties=species:S:1:pos:R:3:mp2_forces:R:3:forces:R:3 R1=H R2=CN R3=H R4=H lg=F nu=Cl rxn-id=320 mp2_energy=-19877.988132296552 energy=-19876.479542192556 free_energy=-19877.988125239935 pbc="F F F"
C        1.48034944      -0.13049864      -0.18236045      -0.04449715      -0.00434376      -0.01173595       0.09750202      -0.00050669      -0.02495298
C        1.38473529       1.38162899      -0.23029787      -0.01942238      -0.05445787       0.01886565       0.03569786      -0.00596090      -0.00556767
H        2.28395607       1.83124619       0.19682432      -0.00352941      -0.00643783       0.05853352      -0.01455909       0.05575635       0.04533590
F       -0.79673766      -0.02149891       0.42039507      -0.06146406      -0.03235826      -0.02340575      -0.09213418      -0.01032126       0.01195752
Cl       3.13315178      -0.61665699      -0.88296522       0.00519058      -0.02001396      -0.06547189      -0.03188877      -0.03906309      -0.03322037
H        0.72663256      -0.60774358      -0.79308458       0.04290666       0.04818998       0.00723824      -0.03968251       0.07008110       0.06506786
H        0.48023069       1.64585552       0.31138777       0.00368964       0.00466448      -0.02413230      -0.02787252      -0.12785526      -0.03737893
H        1.28809844       1.69750123      -1.27165356       0.03620711       0.00747357       0.02323210       0.04784535       0.01193967      -0.00232238
C        1.40689368      -0.68205272       1.16607865       0.07803133       0.00759539      -0.00312558       0.03265276       0.02257354      -0.01057508
N        1.56605962      -1.14296264       2.23567551      -0.03711233       0.04968825       0.02000198      -0.00756093       0.02335653      -0.00834388
10
Properties=species:S:1:pos:R:3:mp2_forces:R:3:forces:R:3 R1=H R2=CN R3=H R4=H lg=F nu=Cl rxn-id=320 mp2_energy=-19877.988132296552 energy=-19876.508723986026 free_energy=-19877.988125239935 pbc="F F F"
C        1.50587541      -0.13092179      -0.18317959      -0.04449715      -0.00434376      -0.01173595       0.01530493       0.00001652      -0.00168578
C        1.39911130       1.37845479      -0.22213850      -0.01942238      -0.05445787       0.01886565       0.00816839      -0.00184689       0.00335541
H        2.26210431       1.85087237       0.25336790      -0.00352941      -0.00643783       0.05853352      -0.01921007       0.01266698       0.04187762
F       -0.85155822      -0.02310467       0.36049183      -0.06146406      -0.03235826      -0.02340575      -0.03149976       0.00277676      -0.02367560
Cl       3.10272311      -0.65215040      -0.93956527       0.00519058      -0.02001396      -0.06547189      -0.01867612      -0.02204986      -0.03514529
H        0.68756998      -0.57554038      -0.73759548       0.04290666       0.04818998       0.00723824      -0.02312221       0.01965199       0.03173177
H        0.45549840       1.58868181       0.27889727       0.00368964       0.00466448      -0.02413230      -0.02111433      -0.03834096      -0.02956734
H        1.33706433       1.70471332      -1.26298486       0.03620711       0.00747357       0.02323210       0.03977269       0.00502134       0.00318712
C        1.46164061      -0.67056945       1.17185300       0.07803133       0.00759539      -0.00312558       0.03248577       0.00658376       0.00337689
N        1.59334068      -1.11561713       2.25085333      -0.03711233       0.04968825       0.02000198       0.01789071       0.01552035       0.00654520
10
Properties=species:S:1:pos:R:3:mp2_forces:R:3:forces:R:3 R1=H R2=CN R3=H R4=H lg=F nu=Cl rxn-id=320 mp2_energy=-19877.988132296552 energy=-19876.523252584422 free_energy=-19877.988125239935 pbc="F F F"
C        1.51614791      -0.13239590      -0.17738512      -0.04449715      -0.00434376      -0.01173595       0.00559530      -0.00094925       0.00225615
C        1.40716034       1.37661884      -0.21178487      -0.01942238      -0.05445787       0.01886565       0.00401961      -0.00122818       0.00491935
H        2.25165977       1.85749698       0.28810024      -0.00352941      -0.00643783       0.05853352      -0.01464788       0.00396636       0.03211735
F       -0.89156353      -0.03289685       0.28050701      -0.06146406      -0.03235826      -0.02340575      -0.02386445      -0.00058528      -0.03675304
Cl       3.07285226      -0.67469686      -0.98271253       0.00519058      -0.02001396      -0.06547189      -0.01945419      -0.01486554      -0.02847676
H        0.65442497      -0.55694236      -0.68788570       0.04290666       0.04818998       0.00723824      -0.02034571       0.01091028       0.02899035
H        0.44653867       1.57042782       0.26482636       0.00368964       0.00466448      -0.02413230      -0.01323820      -0.01560639      -0.02136382
H        1.36459686       1.70697242      -1.25224368       0.03620711       0.00747357       0.02323210       0.03035411       0.00248249       0.00497311
C        1.50683071      -0.66386438       1.18154725       0.07803133       0.00759539      -0.00312558       0.02819587       0.00384860       0.00544359
N        1.62472195      -1.09590126       2.26703067      -0.03711233       0.04968825       0.02000198       0.02338554       0.01202692       0.00789372
10
Properties=species:S:1:pos:R:3:mp2_forces:R:3:forces:R:3 R1=H R2=CN R3=H R4=H lg=F nu=Cl rxn-id=320 mp2_energy=-19877.988132296552 energy=-19876.536343022453 free_energy=-19877.988125239935 pbc="F F F"
C        1.52243106      -0.13353476      -0.16805048      -0.04449715      -0.00434376      -0.01173595       0.00368575      -0.00084686       0.00544475
C        1.41443692       1.37586492      -0.20084768      -0.01942238      -0.05445787       0.01886565       0.00412714      -0.00061634       0.00626089
H        2.24802583       1.86247644       0.31180892      -0.00352941      -0.00643783       0.05853352      -0.00888923       0.00340064       0.02386762
F       -0.92702971      -0.05080590       0.18961438      -0.06146406      -0.03235826      -0.02340575      -0.02365641      -0.00767814      -0.05186744
Cl       3.04111496      -0.69395952      -1.01905750       0.00519058      -0.02001396      -0.06547189      -0.02208936      -0.01357636      -0.02571896
H        0.62180986      -0.53947679      -0.63762472       0.04290666       0.04818998       0.00723824      -0.02174490       0.01119703       0.03283104
H        0.44524214       1.56627012       0.25991552       0.00368964       0.00466448      -0.02413230      -0.00664055      -0.00580226      -0.01319045
H        1.38205089       1.70694925      -1.24137780       0.03620711       0.00747357       0.02323210       0.02192775       0.00070364       0.00612776
C        1.54785095      -0.65806308       1.19287429       0.07803133       0.00759539      -0.00312558       0.02801062       0.00365297       0.00715574
N        1.65743700      -1.08090222       2.28274471      -0.03711233       0.04968825       0.02000198       0.02526919       0.00956567       0.00908907
10
Properties=species:S:1:pos:R:3:mp2_forces:R:3:forces:R:3 R1=H R2=CN R3=H R4=H lg=F nu=Cl rxn-id=320 mp2_energy=-19876.514010806073 energy=-19876.514008536316 free_energy=-19876.514008536316 pbc="F F F"
C        1.51628037      -0.12787569      -0.17831421       0.04610743       0.02230408       0.04971297       0.04611482       0.02231661       0.04973201
C        1.41330058       1.38177166      -0.21933333      -0.01480254       0.02129364      -0.00573928      -0.01480706       0.02128318      -0.00574143
H        2.18185999       1.87926667       0.37553440       0.04021084      -0.03770095       0.03792527       0.04020944      -0.03770174       0.03792441
F       -0.89090678      -0.05049363       0.31612911      -0.04249676       0.03721703      -0.07546817      -0.04249719       0.03721436      -0.07546894
Cl       3.03459120      -0.70897498      -1.02466206      -0.01499359       0.01111801      -0.00394363      -0.01500544       0.01111915      -0.00395466
H        0.61726727      -0.53491372      -0.64382249      -0.01398782      -0.05095053       0.00039411      -0.01397768      -0.05095120       0.00039171
H        0.40321582       1.54915148       0.15558992      -0.05505995       0.00123764       0.04400449      -0.05505481       0.00124339       0.04400533
H        1.48411064       1.72386999      -1.25300360       0.00504846       0.01159356      -0.05419090       0.00504796       0.01159466      -0.05419006
C        1.53575027      -0.65366008       1.18227122       0.00790070      -0.04716784      -0.06617765       0.00786584      -0.04717441      -0.06615503
N        1.65790053      -1.10332324       2.25961066       0.04207323       0.03105535       0.07348278       0.04210411       0.03105600       0.07345667
