21
Properties=species:S:1:pos:R:3:forces:R:3 MeOH_NucSubs=T 5000=T 80.00=T 90.00=T energy=-21772.098936893046 stress="0.0 0.0 0.0 0.0 0.0 0.0 0.0 0.0 0.0" free_energy=-21772.098936893046 pbc="F F F"
N       38.58908009      39.23802781      40.62618739      -0.00015696      -0.00148187       0.00067195
C       38.69200801      39.41814560      41.95134465      -0.00000444      -0.00162370      -0.00039820
C       39.90367026      39.61622720      42.61688935      -0.00046945      -0.00032428       0.00074276
C       41.07636848      39.61229622      41.85983529       0.00008373       0.00073697      -0.00078439
C       40.99269783      39.39883453      40.48532881      -0.00035527       0.00092591       0.00065870
C       39.72560633      39.22488142      39.91074654       0.00029412      -0.00041767      -0.00010649
H       37.75135598      39.40211714      42.49825404      -0.00004440      -0.00254590       0.00028450
H       39.92143224      39.77433291      43.69069661      -0.00027461      -0.00048902      -0.00012561
H       42.04574949      39.75383515      42.33056135      -0.00035243       0.00184291       0.00001523
H       41.89137099      39.35529213      39.88106202       0.00005071       0.00188173      -0.00019076
S       39.45653787      38.90790355      38.19431495       0.00018267      -0.00074039       0.00007356
C       40.96476626      39.58808038      37.47168105      -0.00020469      -0.00000138      -0.00002811
H       40.81872055      39.56709467      36.39111985      -0.00015819      -0.00044312      -0.00004419
H       41.10156704      40.62066276      37.78983150      -0.00084607       0.00017109      -0.00036157
H       41.84385041      38.98668034      37.70325301       0.00016923       0.00062208       0.00016111
C       39.21936493      42.69186477      40.20979532       0.00066738       0.00046190      -0.00023013
O       39.39764699      42.16869856      38.90536510      -0.00018477      -0.00088257       0.00012748
H       38.17779551      42.97215254      40.40086161       0.00156156       0.00451004      -0.00136718
H       39.54184202      41.98123010      40.97594895      -0.00270384      -0.00041254       0.00034450
H       39.83601318      43.58745964      40.27694666       0.00398253      -0.00189387      -0.00012019
H       38.80670550      41.41839264      38.80158593      -0.00123680       0.00010367       0.00067703
